*SPEF "ieee 1481-1999"
*DESIGN "lab1"
*DATE "11:56:24 Saturday April 26, 2025"
*VENDOR "The OpenROAD Project"
*PROGRAM "OpenROAD"
*VERSION "b16bda7e82721d10566ff7e2b68f1ff0be9f9e38"
*DESIGN_FLOW "NAME_SCOPE LOCAL" "PIN_CAP NONE"
*DIVIDER /
*DELIMITER :
*BUS_DELIMITER []
*T_UNIT 1 NS
*C_UNIT 1 PF
*R_UNIT 1 OHM
*L_UNIT 1 HENRY

*NAME_MAP
*3 x[0]
*4 x[1]
*5 x[2]
*6 x[3]
*7 x[4]
*8 x[5]
*9 x[6]
*10 x[7]
*11 y[0]
*12 y[1]
*13 y[2]
*14 y[3]
*15 y[4]
*16 y[5]
*17 y[6]
*18 y[7]
*19 _00_
*20 _01_
*21 _02_
*22 _03_
*23 _04_
*24 _05_
*25 _06_
*26 _07_
*27 _08_
*28 _09_
*29 net1
*30 net10
*31 net11
*32 net12
*33 net13
*34 net14
*35 net15
*36 net16
*37 net2
*38 net3
*39 net4
*40 net5
*41 net6
*42 net7
*43 net8
*44 net9
*45 FILLER_0_0_109
*46 FILLER_0_0_113
*47 FILLER_0_0_125
*48 FILLER_0_0_137
*49 FILLER_0_0_141
*50 FILLER_0_0_15
*51 FILLER_0_0_153
*52 FILLER_0_0_165
*53 FILLER_0_0_169
*54 FILLER_0_0_181
*55 FILLER_0_0_189
*56 FILLER_0_0_27
*57 FILLER_0_0_29
*58 FILLER_0_0_3
*59 FILLER_0_0_41
*60 FILLER_0_0_49
*61 FILLER_0_0_54
*62 FILLER_0_0_57
*63 FILLER_0_0_69
*64 FILLER_0_0_81
*65 FILLER_0_0_85
*66 FILLER_0_0_97
*67 FILLER_0_10_103
*68 FILLER_0_10_115
*69 FILLER_0_10_127
*70 FILLER_0_10_139
*71 FILLER_0_10_141
*72 FILLER_0_10_153
*73 FILLER_0_10_165
*74 FILLER_0_10_177
*75 FILLER_0_10_189
*76 FILLER_0_10_19
*77 FILLER_0_10_27
*78 FILLER_0_10_29
*79 FILLER_0_10_41
*80 FILLER_0_10_53
*81 FILLER_0_10_65
*82 FILLER_0_10_7
*83 FILLER_0_10_80
*84 FILLER_0_10_91
*85 FILLER_0_11_105
*86 FILLER_0_11_111
*87 FILLER_0_11_113
*88 FILLER_0_11_125
*89 FILLER_0_11_137
*90 FILLER_0_11_149
*91 FILLER_0_11_161
*92 FILLER_0_11_167
*93 FILLER_0_11_169
*94 FILLER_0_11_18
*95 FILLER_0_11_181
*96 FILLER_0_11_189
*97 FILLER_0_11_24
*98 FILLER_0_11_32
*99 FILLER_0_11_44
*100 FILLER_0_11_57
*101 FILLER_0_11_6
*102 FILLER_0_11_69
*103 FILLER_0_11_81
*104 FILLER_0_11_93
*105 FILLER_0_12_109
*106 FILLER_0_12_121
*107 FILLER_0_12_133
*108 FILLER_0_12_139
*109 FILLER_0_12_141
*110 FILLER_0_12_153
*111 FILLER_0_12_165
*112 FILLER_0_12_177
*113 FILLER_0_12_18
*114 FILLER_0_12_189
*115 FILLER_0_12_26
*116 FILLER_0_12_29
*117 FILLER_0_12_41
*118 FILLER_0_12_53
*119 FILLER_0_12_6
*120 FILLER_0_12_65
*121 FILLER_0_12_77
*122 FILLER_0_12_83
*123 FILLER_0_12_85
*124 FILLER_0_12_97
*125 FILLER_0_13_102
*126 FILLER_0_13_110
*127 FILLER_0_13_113
*128 FILLER_0_13_125
*129 FILLER_0_13_137
*130 FILLER_0_13_149
*131 FILLER_0_13_15
*132 FILLER_0_13_161
*133 FILLER_0_13_167
*134 FILLER_0_13_169
*135 FILLER_0_13_181
*136 FILLER_0_13_189
*137 FILLER_0_13_27
*138 FILLER_0_13_3
*139 FILLER_0_13_39
*140 FILLER_0_13_51
*141 FILLER_0_13_55
*142 FILLER_0_13_57
*143 FILLER_0_13_69
*144 FILLER_0_13_78
*145 FILLER_0_13_90
*146 FILLER_0_14_109
*147 FILLER_0_14_121
*148 FILLER_0_14_133
*149 FILLER_0_14_139
*150 FILLER_0_14_141
*151 FILLER_0_14_153
*152 FILLER_0_14_165
*153 FILLER_0_14_177
*154 FILLER_0_14_18
*155 FILLER_0_14_189
*156 FILLER_0_14_26
*157 FILLER_0_14_29
*158 FILLER_0_14_41
*159 FILLER_0_14_53
*160 FILLER_0_14_6
*161 FILLER_0_14_65
*162 FILLER_0_14_77
*163 FILLER_0_14_83
*164 FILLER_0_14_85
*165 FILLER_0_14_97
*166 FILLER_0_15_105
*167 FILLER_0_15_111
*168 FILLER_0_15_113
*169 FILLER_0_15_125
*170 FILLER_0_15_137
*171 FILLER_0_15_149
*172 FILLER_0_15_161
*173 FILLER_0_15_167
*174 FILLER_0_15_169
*175 FILLER_0_15_181
*176 FILLER_0_15_189
*177 FILLER_0_15_19
*178 FILLER_0_15_31
*179 FILLER_0_15_43
*180 FILLER_0_15_55
*181 FILLER_0_15_57
*182 FILLER_0_15_69
*183 FILLER_0_15_7
*184 FILLER_0_15_81
*185 FILLER_0_15_93
*186 FILLER_0_16_109
*187 FILLER_0_16_121
*188 FILLER_0_16_133
*189 FILLER_0_16_139
*190 FILLER_0_16_141
*191 FILLER_0_16_153
*192 FILLER_0_16_165
*193 FILLER_0_16_177
*194 FILLER_0_16_189
*195 FILLER_0_16_19
*196 FILLER_0_16_27
*197 FILLER_0_16_29
*198 FILLER_0_16_41
*199 FILLER_0_16_53
*200 FILLER_0_16_65
*201 FILLER_0_16_7
*202 FILLER_0_16_77
*203 FILLER_0_16_83
*204 FILLER_0_16_85
*205 FILLER_0_16_97
*206 FILLER_0_17_105
*207 FILLER_0_17_111
*208 FILLER_0_17_113
*209 FILLER_0_17_125
*210 FILLER_0_17_137
*211 FILLER_0_17_149
*212 FILLER_0_17_161
*213 FILLER_0_17_167
*214 FILLER_0_17_169
*215 FILLER_0_17_181
*216 FILLER_0_17_189
*217 FILLER_0_17_19
*218 FILLER_0_17_31
*219 FILLER_0_17_43
*220 FILLER_0_17_55
*221 FILLER_0_17_57
*222 FILLER_0_17_69
*223 FILLER_0_17_7
*224 FILLER_0_17_81
*225 FILLER_0_17_93
*226 FILLER_0_18_109
*227 FILLER_0_18_121
*228 FILLER_0_18_133
*229 FILLER_0_18_139
*230 FILLER_0_18_141
*231 FILLER_0_18_15
*232 FILLER_0_18_153
*233 FILLER_0_18_165
*234 FILLER_0_18_177
*235 FILLER_0_18_189
*236 FILLER_0_18_27
*237 FILLER_0_18_29
*238 FILLER_0_18_3
*239 FILLER_0_18_41
*240 FILLER_0_18_53
*241 FILLER_0_18_65
*242 FILLER_0_18_77
*243 FILLER_0_18_83
*244 FILLER_0_18_85
*245 FILLER_0_18_97
*246 FILLER_0_19_105
*247 FILLER_0_19_111
*248 FILLER_0_19_113
*249 FILLER_0_19_125
*250 FILLER_0_19_137
*251 FILLER_0_19_149
*252 FILLER_0_19_161
*253 FILLER_0_19_167
*254 FILLER_0_19_169
*255 FILLER_0_19_181
*256 FILLER_0_19_189
*257 FILLER_0_19_19
*258 FILLER_0_19_31
*259 FILLER_0_19_43
*260 FILLER_0_19_55
*261 FILLER_0_19_57
*262 FILLER_0_19_69
*263 FILLER_0_19_7
*264 FILLER_0_19_81
*265 FILLER_0_19_93
*266 FILLER_0_1_105
*267 FILLER_0_1_111
*268 FILLER_0_1_113
*269 FILLER_0_1_125
*270 FILLER_0_1_137
*271 FILLER_0_1_149
*272 FILLER_0_1_15
*273 FILLER_0_1_161
*274 FILLER_0_1_167
*275 FILLER_0_1_169
*276 FILLER_0_1_181
*277 FILLER_0_1_189
*278 FILLER_0_1_27
*279 FILLER_0_1_3
*280 FILLER_0_1_39
*281 FILLER_0_1_51
*282 FILLER_0_1_55
*283 FILLER_0_1_57
*284 FILLER_0_1_69
*285 FILLER_0_1_81
*286 FILLER_0_1_93
*287 FILLER_0_20_109
*288 FILLER_0_20_121
*289 FILLER_0_20_133
*290 FILLER_0_20_139
*291 FILLER_0_20_141
*292 FILLER_0_20_153
*293 FILLER_0_20_165
*294 FILLER_0_20_177
*295 FILLER_0_20_189
*296 FILLER_0_20_19
*297 FILLER_0_20_27
*298 FILLER_0_20_29
*299 FILLER_0_20_41
*300 FILLER_0_20_47
*301 FILLER_0_20_57
*302 FILLER_0_20_69
*303 FILLER_0_20_7
*304 FILLER_0_20_81
*305 FILLER_0_20_85
*306 FILLER_0_20_97
*307 FILLER_0_21_111
*308 FILLER_0_21_113
*309 FILLER_0_21_125
*310 FILLER_0_21_137
*311 FILLER_0_21_149
*312 FILLER_0_21_161
*313 FILLER_0_21_167
*314 FILLER_0_21_169
*315 FILLER_0_21_181
*316 FILLER_0_21_185
*317 FILLER_0_21_189
*318 FILLER_0_21_19
*319 FILLER_0_21_31
*320 FILLER_0_21_43
*321 FILLER_0_21_55
*322 FILLER_0_21_57
*323 FILLER_0_21_69
*324 FILLER_0_21_7
*325 FILLER_0_21_81
*326 FILLER_0_21_87
*327 FILLER_0_21_99
*328 FILLER_0_22_109
*329 FILLER_0_22_121
*330 FILLER_0_22_133
*331 FILLER_0_22_139
*332 FILLER_0_22_141
*333 FILLER_0_22_153
*334 FILLER_0_22_165
*335 FILLER_0_22_177
*336 FILLER_0_22_181
*337 FILLER_0_22_189
*338 FILLER_0_22_19
*339 FILLER_0_22_27
*340 FILLER_0_22_29
*341 FILLER_0_22_41
*342 FILLER_0_22_53
*343 FILLER_0_22_65
*344 FILLER_0_22_7
*345 FILLER_0_22_77
*346 FILLER_0_22_83
*347 FILLER_0_22_85
*348 FILLER_0_22_97
*349 FILLER_0_23_105
*350 FILLER_0_23_111
*351 FILLER_0_23_113
*352 FILLER_0_23_125
*353 FILLER_0_23_137
*354 FILLER_0_23_149
*355 FILLER_0_23_15
*356 FILLER_0_23_161
*357 FILLER_0_23_167
*358 FILLER_0_23_169
*359 FILLER_0_23_181
*360 FILLER_0_23_189
*361 FILLER_0_23_27
*362 FILLER_0_23_3
*363 FILLER_0_23_39
*364 FILLER_0_23_51
*365 FILLER_0_23_55
*366 FILLER_0_23_57
*367 FILLER_0_23_69
*368 FILLER_0_23_81
*369 FILLER_0_23_93
*370 FILLER_0_24_109
*371 FILLER_0_24_121
*372 FILLER_0_24_133
*373 FILLER_0_24_139
*374 FILLER_0_24_141
*375 FILLER_0_24_153
*376 FILLER_0_24_160
*377 FILLER_0_24_172
*378 FILLER_0_24_184
*379 FILLER_0_24_19
*380 FILLER_0_24_27
*381 FILLER_0_24_29
*382 FILLER_0_24_41
*383 FILLER_0_24_53
*384 FILLER_0_24_65
*385 FILLER_0_24_7
*386 FILLER_0_24_77
*387 FILLER_0_24_83
*388 FILLER_0_24_85
*389 FILLER_0_24_97
*390 FILLER_0_25_105
*391 FILLER_0_25_111
*392 FILLER_0_25_113
*393 FILLER_0_25_125
*394 FILLER_0_25_137
*395 FILLER_0_25_149
*396 FILLER_0_25_15
*397 FILLER_0_25_161
*398 FILLER_0_25_167
*399 FILLER_0_25_169
*400 FILLER_0_25_184
*401 FILLER_0_25_27
*402 FILLER_0_25_3
*403 FILLER_0_25_39
*404 FILLER_0_25_51
*405 FILLER_0_25_55
*406 FILLER_0_25_57
*407 FILLER_0_25_69
*408 FILLER_0_25_81
*409 FILLER_0_25_93
*410 FILLER_0_26_109
*411 FILLER_0_26_121
*412 FILLER_0_26_133
*413 FILLER_0_26_139
*414 FILLER_0_26_141
*415 FILLER_0_26_147
*416 FILLER_0_26_15
*417 FILLER_0_26_155
*418 FILLER_0_26_167
*419 FILLER_0_26_179
*420 FILLER_0_26_187
*421 FILLER_0_26_27
*422 FILLER_0_26_29
*423 FILLER_0_26_3
*424 FILLER_0_26_34
*425 FILLER_0_26_46
*426 FILLER_0_26_58
*427 FILLER_0_26_70
*428 FILLER_0_26_82
*429 FILLER_0_26_85
*430 FILLER_0_26_97
*431 FILLER_0_27_109
*432 FILLER_0_27_113
*433 FILLER_0_27_125
*434 FILLER_0_27_137
*435 FILLER_0_27_141
*436 FILLER_0_27_15
*437 FILLER_0_27_153
*438 FILLER_0_27_165
*439 FILLER_0_27_169
*440 FILLER_0_27_181
*441 FILLER_0_27_189
*442 FILLER_0_27_27
*443 FILLER_0_27_29
*444 FILLER_0_27_3
*445 FILLER_0_27_41
*446 FILLER_0_27_53
*447 FILLER_0_27_63
*448 FILLER_0_27_75
*449 FILLER_0_27_83
*450 FILLER_0_27_85
*451 FILLER_0_27_97
*452 FILLER_0_2_109
*453 FILLER_0_2_121
*454 FILLER_0_2_133
*455 FILLER_0_2_139
*456 FILLER_0_2_141
*457 FILLER_0_2_15
*458 FILLER_0_2_153
*459 FILLER_0_2_165
*460 FILLER_0_2_177
*461 FILLER_0_2_189
*462 FILLER_0_2_27
*463 FILLER_0_2_29
*464 FILLER_0_2_3
*465 FILLER_0_2_41
*466 FILLER_0_2_53
*467 FILLER_0_2_65
*468 FILLER_0_2_77
*469 FILLER_0_2_83
*470 FILLER_0_2_85
*471 FILLER_0_2_97
*472 FILLER_0_3_105
*473 FILLER_0_3_111
*474 FILLER_0_3_113
*475 FILLER_0_3_125
*476 FILLER_0_3_137
*477 FILLER_0_3_149
*478 FILLER_0_3_15
*479 FILLER_0_3_161
*480 FILLER_0_3_167
*481 FILLER_0_3_169
*482 FILLER_0_3_181
*483 FILLER_0_3_189
*484 FILLER_0_3_27
*485 FILLER_0_3_3
*486 FILLER_0_3_39
*487 FILLER_0_3_51
*488 FILLER_0_3_55
*489 FILLER_0_3_57
*490 FILLER_0_3_69
*491 FILLER_0_3_81
*492 FILLER_0_3_93
*493 FILLER_0_4_109
*494 FILLER_0_4_121
*495 FILLER_0_4_133
*496 FILLER_0_4_139
*497 FILLER_0_4_141
*498 FILLER_0_4_15
*499 FILLER_0_4_153
*500 FILLER_0_4_165
*501 FILLER_0_4_177
*502 FILLER_0_4_189
*503 FILLER_0_4_27
*504 FILLER_0_4_29
*505 FILLER_0_4_3
*506 FILLER_0_4_35
*507 FILLER_0_4_47
*508 FILLER_0_4_59
*509 FILLER_0_4_71
*510 FILLER_0_4_83
*511 FILLER_0_4_85
*512 FILLER_0_4_97
*513 FILLER_0_5_105
*514 FILLER_0_5_111
*515 FILLER_0_5_113
*516 FILLER_0_5_125
*517 FILLER_0_5_137
*518 FILLER_0_5_149
*519 FILLER_0_5_161
*520 FILLER_0_5_167
*521 FILLER_0_5_169
*522 FILLER_0_5_181
*523 FILLER_0_5_189
*524 FILLER_0_5_19
*525 FILLER_0_5_31
*526 FILLER_0_5_43
*527 FILLER_0_5_55
*528 FILLER_0_5_57
*529 FILLER_0_5_69
*530 FILLER_0_5_7
*531 FILLER_0_5_81
*532 FILLER_0_5_93
*533 FILLER_0_6_109
*534 FILLER_0_6_121
*535 FILLER_0_6_133
*536 FILLER_0_6_139
*537 FILLER_0_6_141
*538 FILLER_0_6_153
*539 FILLER_0_6_165
*540 FILLER_0_6_170
*541 FILLER_0_6_182
*542 FILLER_0_6_19
*543 FILLER_0_6_27
*544 FILLER_0_6_29
*545 FILLER_0_6_41
*546 FILLER_0_6_53
*547 FILLER_0_6_65
*548 FILLER_0_6_7
*549 FILLER_0_6_77
*550 FILLER_0_6_83
*551 FILLER_0_6_85
*552 FILLER_0_6_97
*553 FILLER_0_7_105
*554 FILLER_0_7_111
*555 FILLER_0_7_113
*556 FILLER_0_7_125
*557 FILLER_0_7_137
*558 FILLER_0_7_149
*559 FILLER_0_7_161
*560 FILLER_0_7_167
*561 FILLER_0_7_169
*562 FILLER_0_7_181
*563 FILLER_0_7_189
*564 FILLER_0_7_19
*565 FILLER_0_7_31
*566 FILLER_0_7_43
*567 FILLER_0_7_55
*568 FILLER_0_7_57
*569 FILLER_0_7_69
*570 FILLER_0_7_7
*571 FILLER_0_7_81
*572 FILLER_0_7_93
*573 FILLER_0_8_109
*574 FILLER_0_8_121
*575 FILLER_0_8_133
*576 FILLER_0_8_139
*577 FILLER_0_8_141
*578 FILLER_0_8_15
*579 FILLER_0_8_153
*580 FILLER_0_8_165
*581 FILLER_0_8_177
*582 FILLER_0_8_189
*583 FILLER_0_8_27
*584 FILLER_0_8_29
*585 FILLER_0_8_3
*586 FILLER_0_8_41
*587 FILLER_0_8_53
*588 FILLER_0_8_65
*589 FILLER_0_8_77
*590 FILLER_0_8_83
*591 FILLER_0_8_85
*592 FILLER_0_8_97
*593 FILLER_0_9_101
*594 FILLER_0_9_109
*595 FILLER_0_9_113
*596 FILLER_0_9_125
*597 FILLER_0_9_137
*598 FILLER_0_9_143
*599 FILLER_0_9_155
*600 FILLER_0_9_167
*601 FILLER_0_9_169
*602 FILLER_0_9_181
*603 FILLER_0_9_189
*604 FILLER_0_9_19
*605 FILLER_0_9_31
*606 FILLER_0_9_43
*607 FILLER_0_9_55
*608 FILLER_0_9_57
*609 FILLER_0_9_69
*610 FILLER_0_9_7
*611 FILLER_0_9_77
*612 FILLER_0_9_89
*613 PHY_EDGE_ROW_0_Left_28
*614 PHY_EDGE_ROW_0_Right_0
*615 PHY_EDGE_ROW_10_Left_38
*616 PHY_EDGE_ROW_10_Right_10
*617 PHY_EDGE_ROW_11_Left_39
*618 PHY_EDGE_ROW_11_Right_11
*619 PHY_EDGE_ROW_12_Left_40
*620 PHY_EDGE_ROW_12_Right_12
*621 PHY_EDGE_ROW_13_Left_41
*622 PHY_EDGE_ROW_13_Right_13
*623 PHY_EDGE_ROW_14_Left_42
*624 PHY_EDGE_ROW_14_Right_14
*625 PHY_EDGE_ROW_15_Left_43
*626 PHY_EDGE_ROW_15_Right_15
*627 PHY_EDGE_ROW_16_Left_44
*628 PHY_EDGE_ROW_16_Right_16
*629 PHY_EDGE_ROW_17_Left_45
*630 PHY_EDGE_ROW_17_Right_17
*631 PHY_EDGE_ROW_18_Left_46
*632 PHY_EDGE_ROW_18_Right_18
*633 PHY_EDGE_ROW_19_Left_47
*634 PHY_EDGE_ROW_19_Right_19
*635 PHY_EDGE_ROW_1_Left_29
*636 PHY_EDGE_ROW_1_Right_1
*637 PHY_EDGE_ROW_20_Left_48
*638 PHY_EDGE_ROW_20_Right_20
*639 PHY_EDGE_ROW_21_Left_49
*640 PHY_EDGE_ROW_21_Right_21
*641 PHY_EDGE_ROW_22_Left_50
*642 PHY_EDGE_ROW_22_Right_22
*643 PHY_EDGE_ROW_23_Left_51
*644 PHY_EDGE_ROW_23_Right_23
*645 PHY_EDGE_ROW_24_Left_52
*646 PHY_EDGE_ROW_24_Right_24
*647 PHY_EDGE_ROW_25_Left_53
*648 PHY_EDGE_ROW_25_Right_25
*649 PHY_EDGE_ROW_26_Left_54
*650 PHY_EDGE_ROW_26_Right_26
*651 PHY_EDGE_ROW_27_Left_55
*652 PHY_EDGE_ROW_27_Right_27
*653 PHY_EDGE_ROW_2_Left_30
*654 PHY_EDGE_ROW_2_Right_2
*655 PHY_EDGE_ROW_3_Left_31
*656 PHY_EDGE_ROW_3_Right_3
*657 PHY_EDGE_ROW_4_Left_32
*658 PHY_EDGE_ROW_4_Right_4
*659 PHY_EDGE_ROW_5_Left_33
*660 PHY_EDGE_ROW_5_Right_5
*661 PHY_EDGE_ROW_6_Left_34
*662 PHY_EDGE_ROW_6_Right_6
*663 PHY_EDGE_ROW_7_Left_35
*664 PHY_EDGE_ROW_7_Right_7
*665 PHY_EDGE_ROW_8_Left_36
*666 PHY_EDGE_ROW_8_Right_8
*667 PHY_EDGE_ROW_9_Left_37
*668 PHY_EDGE_ROW_9_Right_9
*669 TAP_TAPCELL_ROW_0_56
*670 TAP_TAPCELL_ROW_0_57
*671 TAP_TAPCELL_ROW_0_58
*672 TAP_TAPCELL_ROW_0_59
*673 TAP_TAPCELL_ROW_0_60
*674 TAP_TAPCELL_ROW_0_61
*675 TAP_TAPCELL_ROW_10_89
*676 TAP_TAPCELL_ROW_10_90
*677 TAP_TAPCELL_ROW_10_91
*678 TAP_TAPCELL_ROW_11_92
*679 TAP_TAPCELL_ROW_11_93
*680 TAP_TAPCELL_ROW_11_94
*681 TAP_TAPCELL_ROW_12_95
*682 TAP_TAPCELL_ROW_12_96
*683 TAP_TAPCELL_ROW_12_97
*684 TAP_TAPCELL_ROW_13_100
*685 TAP_TAPCELL_ROW_13_98
*686 TAP_TAPCELL_ROW_13_99
*687 TAP_TAPCELL_ROW_14_101
*688 TAP_TAPCELL_ROW_14_102
*689 TAP_TAPCELL_ROW_14_103
*690 TAP_TAPCELL_ROW_15_104
*691 TAP_TAPCELL_ROW_15_105
*692 TAP_TAPCELL_ROW_15_106
*693 TAP_TAPCELL_ROW_16_107
*694 TAP_TAPCELL_ROW_16_108
*695 TAP_TAPCELL_ROW_16_109
*696 TAP_TAPCELL_ROW_17_110
*697 TAP_TAPCELL_ROW_17_111
*698 TAP_TAPCELL_ROW_17_112
*699 TAP_TAPCELL_ROW_18_113
*700 TAP_TAPCELL_ROW_18_114
*701 TAP_TAPCELL_ROW_18_115
*702 TAP_TAPCELL_ROW_19_116
*703 TAP_TAPCELL_ROW_19_117
*704 TAP_TAPCELL_ROW_19_118
*705 TAP_TAPCELL_ROW_1_62
*706 TAP_TAPCELL_ROW_1_63
*707 TAP_TAPCELL_ROW_1_64
*708 TAP_TAPCELL_ROW_20_119
*709 TAP_TAPCELL_ROW_20_120
*710 TAP_TAPCELL_ROW_20_121
*711 TAP_TAPCELL_ROW_21_122
*712 TAP_TAPCELL_ROW_21_123
*713 TAP_TAPCELL_ROW_21_124
*714 TAP_TAPCELL_ROW_22_125
*715 TAP_TAPCELL_ROW_22_126
*716 TAP_TAPCELL_ROW_22_127
*717 TAP_TAPCELL_ROW_23_128
*718 TAP_TAPCELL_ROW_23_129
*719 TAP_TAPCELL_ROW_23_130
*720 TAP_TAPCELL_ROW_24_131
*721 TAP_TAPCELL_ROW_24_132
*722 TAP_TAPCELL_ROW_24_133
*723 TAP_TAPCELL_ROW_25_134
*724 TAP_TAPCELL_ROW_25_135
*725 TAP_TAPCELL_ROW_25_136
*726 TAP_TAPCELL_ROW_26_137
*727 TAP_TAPCELL_ROW_26_138
*728 TAP_TAPCELL_ROW_26_139
*729 TAP_TAPCELL_ROW_27_140
*730 TAP_TAPCELL_ROW_27_141
*731 TAP_TAPCELL_ROW_27_142
*732 TAP_TAPCELL_ROW_27_143
*733 TAP_TAPCELL_ROW_27_144
*734 TAP_TAPCELL_ROW_27_145
*735 TAP_TAPCELL_ROW_2_65
*736 TAP_TAPCELL_ROW_2_66
*737 TAP_TAPCELL_ROW_2_67
*738 TAP_TAPCELL_ROW_3_68
*739 TAP_TAPCELL_ROW_3_69
*740 TAP_TAPCELL_ROW_3_70
*741 TAP_TAPCELL_ROW_4_71
*742 TAP_TAPCELL_ROW_4_72
*743 TAP_TAPCELL_ROW_4_73
*744 TAP_TAPCELL_ROW_5_74
*745 TAP_TAPCELL_ROW_5_75
*746 TAP_TAPCELL_ROW_5_76
*747 TAP_TAPCELL_ROW_6_77
*748 TAP_TAPCELL_ROW_6_78
*749 TAP_TAPCELL_ROW_6_79
*750 TAP_TAPCELL_ROW_7_80
*751 TAP_TAPCELL_ROW_7_81
*752 TAP_TAPCELL_ROW_7_82
*753 TAP_TAPCELL_ROW_8_83
*754 TAP_TAPCELL_ROW_8_84
*755 TAP_TAPCELL_ROW_8_85
*756 TAP_TAPCELL_ROW_9_86
*757 TAP_TAPCELL_ROW_9_87
*758 TAP_TAPCELL_ROW_9_88
*759 _10_
*760 _11_
*761 _12_
*762 _13_
*763 _14_
*764 _15_
*765 _16_
*766 _17_
*767 _18_
*768 _19_
*769 _20_
*770 _21_
*771 _22_
*772 _23_
*773 _24_
*774 _25_
*775 _26_
*776 _27_
*777 input1
*778 input2
*779 input3
*780 input4
*781 input5
*782 input6
*783 input7
*784 input8
*785 output10
*786 output11
*787 output12
*788 output13
*789 output14
*790 output15
*791 output16
*792 output9

*PORTS
x[0] I
x[1] I
x[2] I
x[3] I
x[4] I
x[5] I
x[6] I
x[7] I
y[0] O
y[1] O
y[2] O
y[3] O
y[4] O
y[5] O
y[6] O
y[7] O

*D_NET *3 0.000664742
*CONN
*P x[0] I
*I *777:A I *D sky130_fd_sc_hd__clkbuf_2
*CAP
1 x[0] 0.000318117
2 *777:A 0.000318117
3 *777:A y[3] 2.85068e-05
4 *777:A *33:10 0
*RES
1 x[0] *777:A 7.9443 
*END

*D_NET *4 0.000661122
*CONN
*P x[1] I
*I *778:A I *D sky130_fd_sc_hd__clkbuf_2
*CAP
1 x[1] 0.000303611
2 *778:A 0.000303611
3 *778:A *779:A 3.14094e-05
4 *778:A *780:A 2.24901e-05
5 *778:A *33:10 0
*RES
1 x[1] *778:A 7.9443 
*END

*D_NET *5 0.00052896
*CONN
*P x[2] I
*I *779:A I *D sky130_fd_sc_hd__clkbuf_2
*CAP
1 x[2] 0.000222093
2 *779:A 0.000222093
3 *779:A y[2] 3.14094e-05
4 *779:A *780:A 0
5 *779:A *782:A 0
6 *779:A *33:10 2.19555e-05
7 *778:A *779:A 3.14094e-05
*RES
1 x[2] *779:A 5.16003 
*END

*D_NET *6 0.000628469
*CONN
*P x[3] I
*I *780:A I *D sky130_fd_sc_hd__buf_1
*CAP
1 x[3] 0.000258292
2 *780:A 0.000258292
3 *780:A *783:A 2.85068e-05
4 *780:A *784:A 0
5 *780:A *33:10 6.0889e-05
6 *778:A *780:A 2.24901e-05
7 *779:A *780:A 0
*RES
1 x[3] *780:A 6.37677 
*END

*D_NET *7 0.000703753
*CONN
*P x[4] I
*I *781:A I *D sky130_fd_sc_hd__clkbuf_2
*CAP
1 x[4] 0.00027585
2 *781:A 0.00027585
3 *781:A y[3] 0
4 *781:A y[5] 3.14094e-05
5 *781:A y[7] 2.24901e-05
6 *781:A *784:A 0
7 *781:A *33:10 9.8153e-05
*RES
1 x[4] *781:A 6.69003 
*END

*D_NET *8 0.000723459
*CONN
*P x[5] I
*I *782:A I *D sky130_fd_sc_hd__clkbuf_2
*CAP
1 x[5] 0.000292333
2 *782:A 0.000292333
3 *782:A y[0] 2.24901e-05
4 *782:A y[2] 2.15176e-05
5 *782:A y[6] 0
6 *782:A *33:10 9.47866e-05
7 *779:A *782:A 0
*RES
1 x[5] *782:A 6.69003 
*END

*D_NET *9 0.000569444
*CONN
*P x[6] I
*I *783:A I *D sky130_fd_sc_hd__buf_1
*CAP
1 x[6] 0.000259224
2 *783:A 0.000259224
3 *783:A *784:A 2.24901e-05
4 *780:A *783:A 2.85068e-05
*RES
1 x[6] *783:A 7.0893 
*END

*D_NET *10 0.000515776
*CONN
*P x[7] I
*I *784:A I *D sky130_fd_sc_hd__clkbuf_1
*CAP
1 x[7] 0.000215884
2 *784:A 0.000215884
3 *784:A y[7] 2.85068e-05
4 *784:A *33:10 3.3011e-05
5 *780:A *784:A 0
6 *781:A *784:A 0
7 *783:A *784:A 2.24901e-05
*RES
1 x[7] *784:A 5.61177 
*END

*D_NET *11 0.000653252
*CONN
*P y[0] O
*I *792:X O *D sky130_fd_sc_hd__buf_2
*CAP
1 y[0] 0.000299676
2 *792:X 0.000299676
3 y[0] y[6] 3.14094e-05
4 *782:A y[0] 2.24901e-05
*RES
1 *792:X y[0] 7.1793 
*END

*D_NET *12 0.000599613
*CONN
*P y[1] O
*I *785:X O *D sky130_fd_sc_hd__buf_2
*CAP
1 y[1] 0.000274308
2 *785:X 0.000274308
3 y[1] y[4] 2.85068e-05
4 y[1] y[6] 2.24901e-05
*RES
1 *785:X y[1] 7.1793 
*END

*D_NET *13 0.000629386
*CONN
*P y[2] O
*I *786:X O *D sky130_fd_sc_hd__buf_2
*CAP
1 y[2] 0.00028823
2 *786:X 0.00028823
3 *779:A y[2] 3.14094e-05
4 *782:A y[2] 2.15176e-05
*RES
1 *786:X y[2] 7.4343 
*END

*D_NET *14 0.000493804
*CONN
*P y[3] O
*I *787:X O *D sky130_fd_sc_hd__buf_2
*CAP
1 y[3] 0.00021661
2 *787:X 0.00021661
3 y[3] y[5] 2.24901e-05
4 y[3] *33:10 9.58678e-06
5 *777:A y[3] 2.85068e-05
6 *781:A y[3] 0
*RES
1 *787:X y[3] 4.90503 
*END

*D_NET *15 0.000620754
*CONN
*P y[4] O
*I *788:X O *D sky130_fd_sc_hd__buf_2
*CAP
1 y[4] 0.000268079
2 *788:X 0.000268079
3 y[4] y[6] 0
4 y[4] *33:10 5.60879e-05
5 y[1] y[4] 2.85068e-05
*RES
1 *788:X y[4] 5.92503 
*END

*D_NET *16 0.000683687
*CONN
*P y[5] O
*I *789:X O *D sky130_fd_sc_hd__buf_2
*CAP
1 y[5] 0.000314894
2 *789:X 0.000314894
3 y[5] *33:10 0
4 y[3] y[5] 2.24901e-05
5 *781:A y[5] 3.14094e-05
*RES
1 *789:X y[5] 7.4343 
*END

*D_NET *17 0.000472013
*CONN
*P y[6] O
*I *790:X O *D sky130_fd_sc_hd__buf_2
*CAP
1 y[6] 0.000204264
2 *790:X 0.000204264
3 y[6] *33:10 9.58678e-06
4 y[0] y[6] 3.14094e-05
5 y[1] y[6] 2.24901e-05
6 y[4] y[6] 0
7 *782:A y[6] 0
*RES
1 *790:X y[6] 4.90503 
*END

*D_NET *18 0.000652586
*CONN
*P y[7] O
*I *791:X O *D sky130_fd_sc_hd__buf_2
*CAP
1 y[7] 0.000300794
2 *791:X 0.000300794
3 *781:A y[7] 2.24901e-05
4 *784:A y[7] 2.85068e-05
*RES
1 *791:X y[7] 7.1793 
*END

*D_NET *19 0.0112523
*CONN
*I *760:B I *D sky130_fd_sc_hd__xnor2_1
*I *775:A I *D sky130_fd_sc_hd__nor2_1
*I *759:Y O *D sky130_fd_sc_hd__nor2_1
*CAP
1 *760:B 0.00149735
2 *775:A 0.000605599
3 *759:Y 0.0016709
4 *19:10 0.00377386
5 *760:B *760:A 4.89295e-05
6 *760:B *765:B 0.00199556
7 *760:B *23:25 0.00130334
8 *760:B *40:10 0.0003068
9 *19:10 *759:B 4.99619e-05
10 *19:10 *20:10 0
11 *19:10 *23:25 0
*RES
1 *759:Y *19:10 31.395 
2 *19:10 *775:A 13.035 
3 *19:10 *760:B 39.24 
*END

*D_NET *20 0.00795816
*CONN
*I *763:A_N I *D sky130_fd_sc_hd__and2b_1
*I *761:X O *D sky130_fd_sc_hd__o31a_1
*CAP
1 *763:A_N 0.00244367
2 *761:X 0.00136384
3 *20:10 0.00380751
4 *20:10 *759:B 4.7043e-05
5 *20:10 *761:A1 0.000109995
6 *20:10 *37:44 0.000186099
7 *19:10 *20:10 0
*RES
1 *761:X *20:10 29.93 
2 *20:10 *763:A_N 35.515 
*END

*D_NET *21 0.0167314
*CONN
*I *770:A3 I *D sky130_fd_sc_hd__o31ai_1
*I *766:B I *D sky130_fd_sc_hd__and2_1
*I *769:D I *D sky130_fd_sc_hd__or4_2
*I *763:B I *D sky130_fd_sc_hd__and2b_1
*I *765:B I *D sky130_fd_sc_hd__nor2_2
*I *762:X O *D sky130_fd_sc_hd__or4_4
*CAP
1 *770:A3 0.000416312
2 *766:B 4.44959e-05
3 *769:D 0.000180208
4 *763:B 0
5 *765:B 0.000394658
6 *762:X 0
7 *21:36 0.00240501
8 *21:32 0.00313889
9 *21:12 0.00226166
10 *21:6 0.00240927
11 *765:B *40:10 0.00199389
12 *766:B *766:A 0.000112561
13 *769:D *768:A 0.000136685
14 *769:D *40:22 7.24662e-05
15 *770:A3 *770:A1 5.34747e-05
16 *770:A3 *41:14 0.000141582
17 *770:A3 *41:25 6.76997e-05
18 *770:A3 *42:12 0
19 *21:12 *764:A 0.000236522
20 *21:12 *787:A 0.000163319
21 *21:12 *29:23 0
22 *21:12 *42:12 0
23 *21:32 *776:A 0
24 *21:32 *29:23 0
25 *21:32 *29:32 0
26 *21:32 *42:12 0
27 *21:36 *766:A 0.000122821
28 *21:36 *40:18 0.000384301
29 *760:B *765:B 0.00199556
*RES
1 *762:X *21:6 3.6 
2 *21:6 *21:12 32.63 
3 *21:12 *765:B 26.045 
4 *21:12 *763:B 1.6 
5 *21:6 *21:32 8.775 
6 *21:32 *21:36 36.26 
7 *21:36 *769:D 9.53 
8 *21:36 *766:B 2.74 
9 *21:32 *770:A3 11.4 
*END

*D_NET *22 0.000462279
*CONN
*I *764:A I *D sky130_fd_sc_hd__clkbuf_1
*I *763:X O *D sky130_fd_sc_hd__and2b_1
*CAP
1 *764:A 0.000112879
2 *763:X 0.000112879
3 *21:12 *764:A 0.000236522
*RES
1 *763:X *764:A 5.735 
*END

*D_NET *23 0.0149559
*CONN
*I *768:B I *D sky130_fd_sc_hd__xnor2_2
*I *767:A I *D sky130_fd_sc_hd__nor2_1
*I *765:Y O *D sky130_fd_sc_hd__nor2_2
*CAP
1 *768:B 6.71032e-05
2 *767:A 0.00115247
3 *765:Y 0
4 *23:25 0.00255614
5 *23:10 0.00215474
6 *23:4 0.00349132
7 *767:A *767:B 0.0032884
8 *768:B *768:A 0.000160314
9 *23:10 *28:12 0.000397649
10 *23:25 *39:25 0.000384385
11 *760:B *23:25 0.00130334
12 *19:10 *23:25 0
*RES
1 *765:Y *23:4 1.6 
2 *23:4 *23:10 22.21 
3 *23:10 *767:A 31.375 
4 *23:4 *23:25 48.835 
5 *23:25 *768:B 3.085 
*END

*D_NET *24 0.0130817
*CONN
*I *767:B I *D sky130_fd_sc_hd__nor2_1
*I *766:X O *D sky130_fd_sc_hd__and2_1
*CAP
1 *767:B 0.00195707
2 *766:X 0
3 *24:8 0.00489462
4 *24:6 0.00293755
5 *767:B *33:8 4.05674e-06
6 *767:A *767:B 0.0032884
*RES
1 *766:X *24:6 3.6 
2 *24:6 *24:8 48.81 
3 *24:8 *767:B 39.945 
*END

*D_NET *25 0.00998635
*CONN
*I *771:A I *D sky130_fd_sc_hd__and2_1
*I *773:B I *D sky130_fd_sc_hd__xor2_1
*I *769:X O *D sky130_fd_sc_hd__or4_2
*CAP
1 *771:A 0
2 *773:B 0.00126784
3 *769:X 0.0028731
4 *25:14 0.00201533
5 *25:12 0.00362059
6 *773:B *760:A 0
7 *773:B *42:12 0
8 *25:14 *772:A 0.000209493
*RES
1 *769:X *25:12 45.965 
2 *25:12 *25:14 12.18 
3 *25:14 *773:B 24.83 
4 *25:14 *771:A 1.6 
*END

*D_NET *26 0.00561504
*CONN
*I *771:B I *D sky130_fd_sc_hd__and2_1
*I *770:Y O *D sky130_fd_sc_hd__o31ai_1
*CAP
1 *771:B 0.00179943
2 *770:Y 0.00179943
3 *771:B *760:A 0.000570271
4 *771:B *770:A1 0.00050398
5 *771:B *38:38 0.000941925
*RES
1 *770:Y *771:B 40.965 
*END

*D_NET *27 0.00253836
*CONN
*I *772:A I *D sky130_fd_sc_hd__clkbuf_1
*I *771:X O *D sky130_fd_sc_hd__and2_1
*CAP
1 *772:A 0.00116443
2 *771:X 0.00116443
3 *25:14 *772:A 0.000209493
*RES
1 *771:X *772:A 26.58 
*END

*D_NET *28 0.00933058
*CONN
*I *775:B I *D sky130_fd_sc_hd__nor2_1
*I *774:X O *D sky130_fd_sc_hd__and2_1
*CAP
1 *775:B 0.000404047
2 *774:X 0.00331396
3 *28:12 0.00371801
4 *775:B *30:6 0.00111437
5 *28:12 *29:23 0.000382554
6 *23:10 *28:12 0.000397649
*RES
1 *774:X *28:12 46.28 
2 *28:12 *775:B 11.71 
*END

*D_NET *29 0.0167814
*CONN
*I *776:A I *D sky130_fd_sc_hd__clkbuf_1
*I *761:A2 I *D sky130_fd_sc_hd__o31a_1
*I *759:B I *D sky130_fd_sc_hd__nor2_1
*I *762:B I *D sky130_fd_sc_hd__or4_4
*I *774:B I *D sky130_fd_sc_hd__and2_1
*I *777:X O *D sky130_fd_sc_hd__clkbuf_2
*CAP
1 *776:A 0.000902636
2 *761:A2 0
3 *759:B 0.000146392
4 *762:B 0
5 *774:B 0
6 *777:X 0.000679493
7 *29:36 0.00244222
8 *29:32 0.00343648
9 *29:23 0.00238626
10 *29:12 0.00282773
11 *759:B *761:A1 0
12 *776:A *41:14 0
13 *29:12 *774:A 8.64421e-05
14 *29:12 *33:10 0.000136685
15 *29:23 *762:C 0.000635041
16 *29:23 *41:14 0
17 *29:32 *41:14 0
18 *29:36 *761:A3 0.00219681
19 *29:36 *761:B1 0.0004256
20 *19:10 *759:B 4.99619e-05
21 *20:10 *759:B 4.7043e-05
22 *21:12 *29:23 0
23 *21:32 *776:A 0
24 *21:32 *29:23 0
25 *21:32 *29:32 0
26 *28:12 *29:23 0.000382554
*RES
1 *777:X *29:12 16.655 
2 *29:12 *774:B 1.6 
3 *29:12 *29:23 41.915 
4 *29:23 *762:B 3.6 
5 *29:23 *29:32 3.93 
6 *29:32 *29:36 48.335 
7 *29:36 *759:B 8.195 
8 *29:36 *761:A2 1.6 
9 *29:32 *776:A 17.925 
*END

*D_NET *30 0.0154667
*CONN
*I *785:A I *D sky130_fd_sc_hd__buf_2
*I *775:Y O *D sky130_fd_sc_hd__nor2_1
*CAP
1 *785:A 0.00141122
2 *775:Y 0
3 *30:6 0.00475288
4 *30:4 0.00334166
5 *785:A *789:A 0.00261653
6 *785:A *33:10 0.000125626
7 *30:6 *787:A 0.00210447
8 *775:B *30:6 0.00111437
*RES
1 *775:Y *30:4 1.6 
2 *30:4 *30:6 55.305 
3 *30:6 *785:A 39.395 
*END

*D_NET *31 0.00740589
*CONN
*I *786:A I *D sky130_fd_sc_hd__buf_2
*I *760:Y O *D sky130_fd_sc_hd__xnor2_1
*CAP
1 *786:A 0.00221165
2 *760:Y 0.00221165
3 *786:A *774:A 0.000972364
4 *786:A *37:33 0.000399919
5 *786:A *40:10 0.00161032
*RES
1 *760:Y *786:A 45.405 
*END

*D_NET *32 0.00560765
*CONN
*I *787:A I *D sky130_fd_sc_hd__buf_2
*I *764:X O *D sky130_fd_sc_hd__clkbuf_1
*CAP
1 *787:A 0.00166993
2 *764:X 0.00166993
3 *21:12 *787:A 0.000163319
4 *30:6 *787:A 0.00210447
*RES
1 *764:X *787:A 39.66 
*END

*D_NET *33 0.0105739
*CONN
*I *788:A I *D sky130_fd_sc_hd__buf_2
*I *767:Y O *D sky130_fd_sc_hd__nor2_1
*CAP
1 *788:A 0
2 *767:Y 0.00143612
3 *33:10 0.00204097
4 *33:8 0.00347708
5 *33:10 *789:A 0.00296934
6 y[3] *33:10 9.58678e-06
7 y[4] *33:10 5.60879e-05
8 y[5] *33:10 0
9 y[6] *33:10 9.58678e-06
10 *767:B *33:8 4.05674e-06
11 *777:A *33:10 0
12 *778:A *33:10 0
13 *779:A *33:10 2.19555e-05
14 *780:A *33:10 6.0889e-05
15 *781:A *33:10 9.8153e-05
16 *782:A *33:10 9.47866e-05
17 *784:A *33:10 3.3011e-05
18 *785:A *33:10 0.000125626
19 *29:12 *33:10 0.000136685
*RES
1 *767:Y *33:8 19.23 
2 *33:8 *33:10 48.3 
3 *33:10 *788:A 3.6 
*END

*D_NET *34 0.0153846
*CONN
*I *789:A I *D sky130_fd_sc_hd__buf_2
*I *768:Y O *D sky130_fd_sc_hd__xnor2_2
*CAP
1 *789:A 0.000925396
2 *768:Y 0
3 *34:6 0.00455688
4 *34:4 0.00363149
5 *34:6 *768:A 0.000684965
6 *785:A *789:A 0.00261653
7 *33:10 *789:A 0.00296934
*RES
1 *768:Y *34:4 1.6 
2 *34:4 *34:6 56.685 
3 *34:6 *789:A 42.62 
*END

*D_NET *35 0.00421021
*CONN
*I *790:A I *D sky130_fd_sc_hd__buf_2
*I *772:X O *D sky130_fd_sc_hd__clkbuf_1
*CAP
1 *790:A 0.00210511
2 *772:X 0.00210511
*RES
1 *772:X *790:A 30.935 
*END

*D_NET *36 0.00129345
*CONN
*I *791:A I *D sky130_fd_sc_hd__buf_2
*I *773:X O *D sky130_fd_sc_hd__xor2_1
*CAP
1 *791:A 0.000593475
2 *773:X 0.000593475
3 *791:A *773:A 0.000106504
*RES
1 *773:X *791:A 15.6 
*END

*D_NET *37 0.0156826
*CONN
*I *761:A1 I *D sky130_fd_sc_hd__o31a_1
*I *759:A I *D sky130_fd_sc_hd__nor2_1
*I *762:A I *D sky130_fd_sc_hd__or4_4
*I *774:A I *D sky130_fd_sc_hd__and2_1
*I *778:X O *D sky130_fd_sc_hd__clkbuf_2
*CAP
1 *761:A1 0.000169877
2 *759:A 3.76639e-05
3 *762:A 0
4 *774:A 0.00119364
5 *778:X 0.000558408
6 *37:44 0.000296242
7 *37:42 0.00240389
8 *37:33 0.00340449
9 *37:8 0.00284135
10 *37:33 *762:C 2.53871e-05
11 *37:33 *792:A 3.09233e-05
12 *37:33 *39:14 0.000184866
13 *37:33 *39:25 7.76481e-05
14 *37:42 *39:25 0.00270337
15 *759:B *761:A1 0
16 *786:A *774:A 0.000972364
17 *786:A *37:33 0.000399919
18 *20:10 *761:A1 0.000109995
19 *20:10 *37:44 0.000186099
20 *29:12 *774:A 8.64421e-05
*RES
1 *778:X *37:8 10.95 
2 *37:8 *774:A 26.985 
3 *37:8 *37:33 21.755 
4 *37:33 *762:A 1.6 
5 *37:33 *37:42 49.37 
6 *37:42 *37:44 2.145 
7 *37:44 *759:A 4.05 
8 *37:44 *761:A1 6.63 
*END

*D_NET *38 0.0168433
*CONN
*I *761:A3 I *D sky130_fd_sc_hd__o31a_1
*I *760:A I *D sky130_fd_sc_hd__xnor2_1
*I *762:C I *D sky130_fd_sc_hd__or4_4
*I *779:X O *D sky130_fd_sc_hd__clkbuf_2
*CAP
1 *761:A3 0.00201809
2 *760:A 0.000829929
3 *762:C 0.000312623
4 *779:X 0.00144995
5 *38:38 0.00250721
6 *38:23 0.00216367
7 *38:6 0.00260718
8 *760:A *40:10 8.52845e-05
9 *761:A3 *761:B1 0.0004256
10 *762:C *39:25 2.53871e-05
11 *762:C *41:14 0
12 *760:B *760:A 4.89295e-05
13 *771:B *760:A 0.000570271
14 *771:B *38:38 0.000941925
15 *773:B *760:A 0
16 *29:23 *762:C 0.000635041
17 *29:36 *761:A3 0.00219681
18 *37:33 *762:C 2.53871e-05
*RES
1 *779:X *38:6 17.23 
2 *38:6 *762:C 13.3438 
3 *38:6 *38:23 11.075 
4 *38:23 *760:A 19.29 
5 *38:23 *38:38 13.325 
6 *38:38 *761:A3 39.325 
*END

*D_NET *39 0.0133461
*CONN
*I *761:B1 I *D sky130_fd_sc_hd__o31a_1
*I *762:D I *D sky130_fd_sc_hd__or4_4
*I *780:X O *D sky130_fd_sc_hd__buf_1
*CAP
1 *761:B1 6.37297e-05
2 *762:D 0
3 *780:X 0.00199865
4 *39:25 0.00256096
5 *39:14 0.00449588
6 *39:14 *41:14 0
7 *761:A3 *761:B1 0.0004256
8 *762:C *39:25 2.53871e-05
9 *23:25 *39:25 0.000384385