*SPEF "ieee 1481-1999"
*DESIGN "lab2_behavE"
*DATE "21:06:51 Sunday May 04, 2025"
*VENDOR "The OpenROAD Project"
*PROGRAM "OpenROAD"
*VERSION "b16bda7e82721d10566ff7e2b68f1ff0be9f9e38"
*DESIGN_FLOW "NAME_SCOPE LOCAL" "PIN_CAP NONE"
*DIVIDER /
*DELIMITER :
*BUS_DELIMITER []
*T_UNIT 1 NS
*C_UNIT 1 PF
*R_UNIT 1 OHM
*L_UNIT 1 HENRY

*NAME_MAP
*1 A[0]
*2 A[1]
*3 A[2]
*4 A[3]
*5 A[4]
*6 A[5]
*7 A[6]
*8 A[7]
*9 B[0]
*10 B[1]
*11 B[2]
*12 B[3]
*13 B[4]
*14 B[5]
*15 B[6]
*16 B[7]
*19 opcode[0]
*20 opcode[1]
*21 opcode[2]
*22 out[0]
*23 out[1]
*24 out[2]
*25 out[3]
*26 out[4]
*27 out[5]
*28 out[6]
*29 out[7]
*30 _000_
*31 _001_
*32 _002_
*33 _003_
*34 _004_
*35 _005_
*36 _006_
*37 _007_
*38 _008_
*39 _009_
*40 _010_
*41 _011_
*42 _012_
*43 _013_
*44 _014_
*45 _015_
*46 _016_
*47 _017_
*48 _018_
*49 _019_
*50 _020_
*51 _021_
*52 _022_
*53 _023_
*54 _024_
*55 _025_
*56 _026_
*57 _027_
*58 _028_
*59 _029_
*60 _030_
*61 _031_
*62 _032_
*63 _033_
*64 _034_
*65 _035_
*66 _036_
*67 _037_
*68 _038_
*69 _039_
*70 _040_
*71 _041_
*72 _042_
*73 _043_
*74 _044_
*75 _045_
*76 _046_
*77 _047_
*78 _048_
*79 _049_
*80 _050_
*81 _051_
*82 _052_
*83 _053_
*84 _054_
*85 _055_
*86 _056_
*87 _057_
*88 _058_
*89 _059_
*90 _060_
*91 _061_
*92 _062_
*93 _063_
*94 _064_
*95 _065_
*96 _066_
*97 _067_
*98 _068_
*99 _069_
*100 _070_
*101 _071_
*102 _072_
*103 _073_
*104 _074_
*105 _075_
*106 _076_
*107 _077_
*108 _078_
*109 _079_
*110 _080_
*111 _081_
*112 _082_
*113 _083_
*114 _084_
*115 _085_
*116 _086_
*117 _087_
*118 _088_
*119 _089_
*120 _090_
*121 _091_
*122 _092_
*123 _093_
*124 _094_
*125 _095_
*126 _096_
*127 _097_
*128 _098_
*129 _099_
*130 _100_
*131 _101_
*132 _102_
*133 _103_
*134 _104_
*135 _105_
*136 _106_
*137 _107_
*138 _108_
*139 _109_
*140 _110_
*141 _111_
*142 _112_
*143 _113_
*144 _114_
*145 _115_
*146 _116_
*147 _117_
*148 _118_
*149 _119_
*150 _120_
*151 _121_
*152 _122_
*153 _123_
*154 _124_
*155 _125_
*156 _126_
*157 _127_
*158 _128_
*159 _129_
*160 _130_
*161 _131_
*162 _132_
*163 _133_
*164 _134_
*165 _135_
*166 _136_
*167 _137_
*168 _138_
*169 _139_
*170 _140_
*171 _141_
*172 _142_
*173 _143_
*174 _144_
*175 _145_
*176 _146_
*177 _147_
*178 _148_
*179 _149_
*180 _150_
*181 _151_
*182 _152_
*183 _153_
*184 _154_
*185 _155_
*186 _156_
*187 _157_
*188 _158_
*189 _159_
*190 _160_
*191 _161_
*192 _162_
*193 _163_
*194 _164_
*195 _165_
*196 _166_
*197 _167_
*198 _168_
*199 _169_
*200 net1
*201 net10
*202 net11
*203 net12
*204 net13
*205 net14
*206 net15
*207 net16
*208 net17
*209 net18
*210 net19
*211 net2
*212 net20
*213 net21
*214 net22
*215 net23
*216 net24
*217 net25
*218 net26
*219 net27
*220 net28
*221 net29
*222 net3
*223 net30
*224 net31
*225 net32
*226 net4
*227 net5
*228 net6
*229 net7
*230 net8
*231 net9
*232 ANTENNA_1
*233 ANTENNA_2
*234 ANTENNA_3
*235 FILLER_0_0_105
*236 FILLER_0_0_11
*237 FILLER_0_0_111
*238 FILLER_0_0_113
*239 FILLER_0_0_125
*240 FILLER_0_0_137
*241 FILLER_0_0_141
*242 FILLER_0_0_153
*243 FILLER_0_0_157
*244 FILLER_0_0_165
*245 FILLER_0_0_169
*246 FILLER_0_0_183
*247 FILLER_0_0_189
*248 FILLER_0_0_23
*249 FILLER_0_0_27
*250 FILLER_0_0_29
*251 FILLER_0_0_41
*252 FILLER_0_0_53
*253 FILLER_0_0_57
*254 FILLER_0_0_70
*255 FILLER_0_0_93
*256 FILLER_0_0_99
*257 FILLER_0_10_111
*258 FILLER_0_10_117
*259 FILLER_0_10_138
*260 FILLER_0_10_147
*261 FILLER_0_10_159
*262 FILLER_0_10_171
*263 FILLER_0_10_188
*264 FILLER_0_10_20
*265 FILLER_0_10_29
*266 FILLER_0_10_33
*267 FILLER_0_10_40
*268 FILLER_0_10_48
*269 FILLER_0_10_64
*270 FILLER_0_10_76
*271 FILLER_0_10_89
*272 FILLER_0_10_95
*273 FILLER_0_10_99
*274 FILLER_0_11_109
*275 FILLER_0_11_113
*276 FILLER_0_11_125
*277 FILLER_0_11_137
*278 FILLER_0_11_149
*279 FILLER_0_11_158
*280 FILLER_0_11_164
*281 FILLER_0_11_169
*282 FILLER_0_11_179
*283 FILLER_0_11_187
*284 FILLER_0_11_19
*285 FILLER_0_11_31
*286 FILLER_0_11_52
*287 FILLER_0_11_57
*288 FILLER_0_11_69
*289 FILLER_0_11_7
*290 FILLER_0_11_77
*291 FILLER_0_11_85
*292 FILLER_0_11_97
*293 FILLER_0_12_105
*294 FILLER_0_12_113
*295 FILLER_0_12_125
*296 FILLER_0_12_137
*297 FILLER_0_12_145
*298 FILLER_0_12_152
*299 FILLER_0_12_156
*300 FILLER_0_12_164
*301 FILLER_0_12_188
*302 FILLER_0_12_19
*303 FILLER_0_12_27
*304 FILLER_0_12_29
*305 FILLER_0_12_49
*306 FILLER_0_12_61
*307 FILLER_0_12_69
*308 FILLER_0_12_75
*309 FILLER_0_12_83
*310 FILLER_0_12_85
*311 FILLER_0_12_97
*312 FILLER_0_13_106
*313 FILLER_0_13_11
*314 FILLER_0_13_113
*315 FILLER_0_13_125
*316 FILLER_0_13_130
*317 FILLER_0_13_142
*318 FILLER_0_13_15
*319 FILLER_0_13_154
*320 FILLER_0_13_166
*321 FILLER_0_13_178
*322 FILLER_0_13_27
*323 FILLER_0_13_39
*324 FILLER_0_13_50
*325 FILLER_0_13_57
*326 FILLER_0_13_69
*327 FILLER_0_13_7
*328 FILLER_0_13_82
*329 FILLER_0_13_94
*330 FILLER_0_14_109
*331 FILLER_0_14_117
*332 FILLER_0_14_126
*333 FILLER_0_14_134
*334 FILLER_0_14_141
*335 FILLER_0_14_153
*336 FILLER_0_14_161
*337 FILLER_0_14_180
*338 FILLER_0_14_188
*339 FILLER_0_14_19
*340 FILLER_0_14_27
*341 FILLER_0_14_32
*342 FILLER_0_14_44
*343 FILLER_0_14_56
*344 FILLER_0_14_68
*345 FILLER_0_14_7
*346 FILLER_0_14_74
*347 FILLER_0_14_82
*348 FILLER_0_14_92
*349 FILLER_0_15_101
*350 FILLER_0_15_111
*351 FILLER_0_15_120
*352 FILLER_0_15_132
*353 FILLER_0_15_140
*354 FILLER_0_15_144
*355 FILLER_0_15_156
*356 FILLER_0_15_169
*357 FILLER_0_15_181
*358 FILLER_0_15_189
*359 FILLER_0_15_25
*360 FILLER_0_15_37
*361 FILLER_0_15_49
*362 FILLER_0_15_55
*363 FILLER_0_15_57
*364 FILLER_0_15_69
*365 FILLER_0_15_81
*366 FILLER_0_15_9
*367 FILLER_0_15_93
*368 FILLER_0_15_97
*369 FILLER_0_16_104
*370 FILLER_0_16_116
*371 FILLER_0_16_128
*372 FILLER_0_16_141
*373 FILLER_0_16_153
*374 FILLER_0_16_161
*375 FILLER_0_16_166
*376 FILLER_0_16_178
*377 FILLER_0_16_182
*378 FILLER_0_16_19
*379 FILLER_0_16_27
*380 FILLER_0_16_29
*381 FILLER_0_16_41
*382 FILLER_0_16_50
*383 FILLER_0_16_55
*384 FILLER_0_16_67
*385 FILLER_0_16_7
*386 FILLER_0_16_79
*387 FILLER_0_16_83
*388 FILLER_0_16_92
*389 FILLER_0_17_103
*390 FILLER_0_17_107
*391 FILLER_0_17_111
*392 FILLER_0_17_113
*393 FILLER_0_17_12
*394 FILLER_0_17_132
*395 FILLER_0_17_144
*396 FILLER_0_17_156
*397 FILLER_0_17_169
*398 FILLER_0_17_181
*399 FILLER_0_17_189
*400 FILLER_0_17_47
*401 FILLER_0_17_55
*402 FILLER_0_17_57
*403 FILLER_0_17_69
*404 FILLER_0_17_77
*405 FILLER_0_17_85
*406 FILLER_0_17_97
*407 FILLER_0_18_117
*408 FILLER_0_18_125
*409 FILLER_0_18_138
*410 FILLER_0_18_149
*411 FILLER_0_18_161
*412 FILLER_0_18_173
*413 FILLER_0_18_185
*414 FILLER_0_18_189
*415 FILLER_0_18_19
*416 FILLER_0_18_27
*417 FILLER_0_18_29
*418 FILLER_0_18_41
*419 FILLER_0_18_53
*420 FILLER_0_18_65
*421 FILLER_0_18_7
*422 FILLER_0_18_79
*423 FILLER_0_18_83
*424 FILLER_0_18_85
*425 FILLER_0_18_97
*426 FILLER_0_19_107
*427 FILLER_0_19_111
*428 FILLER_0_19_113
*429 FILLER_0_19_12
*430 FILLER_0_19_125
*431 FILLER_0_19_137
*432 FILLER_0_19_145
*433 FILLER_0_19_152
*434 FILLER_0_19_164
*435 FILLER_0_19_176
*436 FILLER_0_19_188
*437 FILLER_0_19_24
*438 FILLER_0_19_3
*439 FILLER_0_19_32
*440 FILLER_0_19_44
*441 FILLER_0_19_51
*442 FILLER_0_19_55
*443 FILLER_0_19_57
*444 FILLER_0_19_69
*445 FILLER_0_19_81
*446 FILLER_0_19_95
*447 FILLER_0_1_100
*448 FILLER_0_1_119
*449 FILLER_0_1_131
*450 FILLER_0_1_143
*451 FILLER_0_1_155
*452 FILLER_0_1_167
*453 FILLER_0_1_169
*454 FILLER_0_1_181
*455 FILLER_0_1_189
*456 FILLER_0_1_19
*457 FILLER_0_1_29
*458 FILLER_0_1_44
*459 FILLER_0_1_57
*460 FILLER_0_1_69
*461 FILLER_0_1_7
*462 FILLER_0_1_79
*463 FILLER_0_1_88
*464 FILLER_0_20_100
*465 FILLER_0_20_112
*466 FILLER_0_20_120
*467 FILLER_0_20_136
*468 FILLER_0_20_141
*469 FILLER_0_20_149
*470 FILLER_0_20_16
*471 FILLER_0_20_160
*472 FILLER_0_20_168
*473 FILLER_0_20_177
*474 FILLER_0_20_189
*475 FILLER_0_20_34
*476 FILLER_0_20_46
*477 FILLER_0_20_58
*478 FILLER_0_20_7
*479 FILLER_0_20_70
*480 FILLER_0_20_82
*481 FILLER_0_21_105
*482 FILLER_0_21_113
*483 FILLER_0_21_127
*484 FILLER_0_21_139
*485 FILLER_0_21_15
*486 FILLER_0_21_151
*487 FILLER_0_21_155
*488 FILLER_0_21_185
*489 FILLER_0_21_189
*490 FILLER_0_21_33
*491 FILLER_0_21_45
*492 FILLER_0_21_53
*493 FILLER_0_21_57
*494 FILLER_0_21_69
*495 FILLER_0_21_7
*496 FILLER_0_21_73
*497 FILLER_0_21_95
*498 FILLER_0_22_102
*499 FILLER_0_22_106
*500 FILLER_0_22_112
*501 FILLER_0_22_124
*502 FILLER_0_22_132
*503 FILLER_0_22_141
*504 FILLER_0_22_147
*505 FILLER_0_22_153
*506 FILLER_0_22_157
*507 FILLER_0_22_168
*508 FILLER_0_22_180
*509 FILLER_0_22_188
*510 FILLER_0_22_19
*511 FILLER_0_22_27
*512 FILLER_0_22_29
*513 FILLER_0_22_47
*514 FILLER_0_22_59
*515 FILLER_0_22_7
*516 FILLER_0_22_71
*517 FILLER_0_22_79
*518 FILLER_0_22_90
*519 FILLER_0_23_10
*520 FILLER_0_23_105
*521 FILLER_0_23_111
*522 FILLER_0_23_113
*523 FILLER_0_23_125
*524 FILLER_0_23_137
*525 FILLER_0_23_148
*526 FILLER_0_23_152
*527 FILLER_0_23_160
*528 FILLER_0_23_180
*529 FILLER_0_23_22
*530 FILLER_0_23_34
*531 FILLER_0_23_42
*532 FILLER_0_23_52
*533 FILLER_0_23_57
*534 FILLER_0_23_69
*535 FILLER_0_23_81
*536 FILLER_0_23_93
*537 FILLER_0_24_100
*538 FILLER_0_24_112
*539 FILLER_0_24_120
*540 FILLER_0_24_137
*541 FILLER_0_24_141
*542 FILLER_0_24_153
*543 FILLER_0_24_165
*544 FILLER_0_24_177
*545 FILLER_0_24_183
*546 FILLER_0_24_188
*547 FILLER_0_24_19
*548 FILLER_0_24_27
*549 FILLER_0_24_29
*550 FILLER_0_24_41
*551 FILLER_0_24_51
*552 FILLER_0_24_55
*553 FILLER_0_24_61
*554 FILLER_0_24_7
*555 FILLER_0_24_73
*556 FILLER_0_24_81
*557 FILLER_0_24_85
*558 FILLER_0_24_95
*559 FILLER_0_25_108
*560 FILLER_0_25_116
*561 FILLER_0_25_124
*562 FILLER_0_25_149
*563 FILLER_0_25_157
*564 FILLER_0_25_183
*565 FILLER_0_25_189
*566 FILLER_0_25_21
*567 FILLER_0_25_28
*568 FILLER_0_25_37
*569 FILLER_0_25_41
*570 FILLER_0_25_55
*571 FILLER_0_25_57
*572 FILLER_0_25_63
*573 FILLER_0_25_72
*574 FILLER_0_25_84
*575 FILLER_0_25_9
*576 FILLER_0_25_96
*577 FILLER_0_26_108
*578 FILLER_0_26_120
*579 FILLER_0_26_132
*580 FILLER_0_26_141
*581 FILLER_0_26_153
*582 FILLER_0_26_165
*583 FILLER_0_26_177
*584 FILLER_0_26_18
*585 FILLER_0_26_183
*586 FILLER_0_26_26
*587 FILLER_0_26_29
*588 FILLER_0_26_41
*589 FILLER_0_26_53
*590 FILLER_0_26_65
*591 FILLER_0_26_7
*592 FILLER_0_26_77
*593 FILLER_0_26_83
*594 FILLER_0_26_85
*595 FILLER_0_26_96
*596 FILLER_0_27_109
*597 FILLER_0_27_113
*598 FILLER_0_27_12
*599 FILLER_0_27_125
*600 FILLER_0_27_137
*601 FILLER_0_27_145
*602 FILLER_0_27_157
*603 FILLER_0_27_165
*604 FILLER_0_27_169
*605 FILLER_0_27_181
*606 FILLER_0_27_188
*607 FILLER_0_27_21
*608 FILLER_0_27_27
*609 FILLER_0_27_29
*610 FILLER_0_27_33
*611 FILLER_0_27_43
*612 FILLER_0_27_55
*613 FILLER_0_27_57
*614 FILLER_0_27_69
*615 FILLER_0_27_7
*616 FILLER_0_27_81
*617 FILLER_0_27_85
*618 FILLER_0_27_97
*619 FILLER_0_2_102
*620 FILLER_0_2_11
*621 FILLER_0_2_110
*622 FILLER_0_2_122
*623 FILLER_0_2_134
*624 FILLER_0_2_141
*625 FILLER_0_2_153
*626 FILLER_0_2_157
*627 FILLER_0_2_165
*628 FILLER_0_2_23
*629 FILLER_0_2_27
*630 FILLER_0_2_29
*631 FILLER_0_2_41
*632 FILLER_0_2_53
*633 FILLER_0_2_65
*634 FILLER_0_2_7
*635 FILLER_0_2_72
*636 FILLER_0_2_90
*637 FILLER_0_3_10
*638 FILLER_0_3_108
*639 FILLER_0_3_113
*640 FILLER_0_3_123
*641 FILLER_0_3_131
*642 FILLER_0_3_135
*643 FILLER_0_3_147
*644 FILLER_0_3_159
*645 FILLER_0_3_167
*646 FILLER_0_3_169
*647 FILLER_0_3_181
*648 FILLER_0_3_189
*649 FILLER_0_3_22
*650 FILLER_0_3_3
*651 FILLER_0_3_34
*652 FILLER_0_3_46
*653 FILLER_0_3_54
*654 FILLER_0_3_60
*655 FILLER_0_3_72
*656 FILLER_0_3_84
*657 FILLER_0_3_96
*658 FILLER_0_4_109
*659 FILLER_0_4_121
*660 FILLER_0_4_133
*661 FILLER_0_4_139
*662 FILLER_0_4_154
*663 FILLER_0_4_166
*664 FILLER_0_4_178
*665 FILLER_0_4_19
*666 FILLER_0_4_27
*667 FILLER_0_4_29
*668 FILLER_0_4_41
*669 FILLER_0_4_53
*670 FILLER_0_4_65
*671 FILLER_0_4_7
*672 FILLER_0_4_77
*673 FILLER_0_4_83
*674 FILLER_0_4_85
*675 FILLER_0_4_97
*676 FILLER_0_5_110
*677 FILLER_0_5_113
*678 FILLER_0_5_125
*679 FILLER_0_5_137
*680 FILLER_0_5_149
*681 FILLER_0_5_15
*682 FILLER_0_5_161
*683 FILLER_0_5_167
*684 FILLER_0_5_169
*685 FILLER_0_5_179
*686 FILLER_0_5_187
*687 FILLER_0_5_38
*688 FILLER_0_5_50
*689 FILLER_0_5_57
*690 FILLER_0_5_69
*691 FILLER_0_5_7
*692 FILLER_0_5_81
*693 FILLER_0_5_89
*694 FILLER_0_5_98
*695 FILLER_0_6_105
*696 FILLER_0_6_115
*697 FILLER_0_6_123
*698 FILLER_0_6_13
*699 FILLER_0_6_135
*700 FILLER_0_6_139
*701 FILLER_0_6_141
*702 FILLER_0_6_153
*703 FILLER_0_6_165
*704 FILLER_0_6_177
*705 FILLER_0_6_189
*706 FILLER_0_6_27
*707 FILLER_0_6_29
*708 FILLER_0_6_33
*709 FILLER_0_6_39
*710 FILLER_0_6_51
*711 FILLER_0_6_63
*712 FILLER_0_6_7
*713 FILLER_0_6_75
*714 FILLER_0_6_83
*715 FILLER_0_6_85
*716 FILLER_0_6_97
*717 FILLER_0_7_105
*718 FILLER_0_7_111
*719 FILLER_0_7_113
*720 FILLER_0_7_125
*721 FILLER_0_7_133
*722 FILLER_0_7_138
*723 FILLER_0_7_150
*724 FILLER_0_7_157
*725 FILLER_0_7_165
*726 FILLER_0_7_169
*727 FILLER_0_7_178
*728 FILLER_0_7_19
*729 FILLER_0_7_31
*730 FILLER_0_7_43
*731 FILLER_0_7_50
*732 FILLER_0_7_57
*733 FILLER_0_7_69
*734 FILLER_0_7_7
*735 FILLER_0_7_81
*736 FILLER_0_7_93
*737 FILLER_0_8_101
*738 FILLER_0_8_113
*739 FILLER_0_8_119
*740 FILLER_0_8_125
*741 FILLER_0_8_137
*742 FILLER_0_8_141
*743 FILLER_0_8_15
*744 FILLER_0_8_153
*745 FILLER_0_8_165
*746 FILLER_0_8_172
*747 FILLER_0_8_184
*748 FILLER_0_8_27
*749 FILLER_0_8_3
*750 FILLER_0_8_46
*751 FILLER_0_8_51
*752 FILLER_0_8_57
*753 FILLER_0_8_83
*754 FILLER_0_8_85
*755 FILLER_0_8_93
*756 FILLER_0_9_109
*757 FILLER_0_9_11
*758 FILLER_0_9_113
*759 FILLER_0_9_121
*760 FILLER_0_9_130
*761 FILLER_0_9_142
*762 FILLER_0_9_150
*763 FILLER_0_9_160
*764 FILLER_0_9_169
*765 FILLER_0_9_181
*766 FILLER_0_9_189
*767 FILLER_0_9_23
*768 FILLER_0_9_35
*769 FILLER_0_9_50
*770 FILLER_0_9_66
*771 FILLER_0_9_7
*772 FILLER_0_9_73
*773 FILLER_0_9_85
*774 FILLER_0_9_97
*775 PHY_EDGE_ROW_0_Left_28
*776 PHY_EDGE_ROW_0_Right_0
*777 PHY_EDGE_ROW_10_Left_38
*778 PHY_EDGE_ROW_10_Right_10
*779 PHY_EDGE_ROW_11_Left_39
*780 PHY_EDGE_ROW_11_Right_11
*781 PHY_EDGE_ROW_12_Left_40
*782 PHY_EDGE_ROW_12_Right_12
*783 PHY_EDGE_ROW_13_Left_41
*784 PHY_EDGE_ROW_13_Right_13
*785 PHY_EDGE_ROW_14_Left_42
*786 PHY_EDGE_ROW_14_Right_14
*787 PHY_EDGE_ROW_15_Left_43
*788 PHY_EDGE_ROW_15_Right_15
*789 PHY_EDGE_ROW_16_Left_44
*790 PHY_EDGE_ROW_16_Right_16
*791 PHY_EDGE_ROW_17_Left_45
*792 PHY_EDGE_ROW_17_Right_17
*793 PHY_EDGE_ROW_18_Left_46
*794 PHY_EDGE_ROW_18_Right_18
*795 PHY_EDGE_ROW_19_Left_47
*796 PHY_EDGE_ROW_19_Right_19
*797 PHY_EDGE_ROW_1_Left_29
*798 PHY_EDGE_ROW_1_Right_1
*799 PHY_EDGE_ROW_20_Left_48
*800 PHY_EDGE_ROW_20_Right_20
*801 PHY_EDGE_ROW_21_Left_49
*802 PHY_EDGE_ROW_21_Right_21
*803 PHY_EDGE_ROW_22_Left_50
*804 PHY_EDGE_ROW_22_Right_22
*805 PHY_EDGE_ROW_23_Left_51
*806 PHY_EDGE_ROW_23_Right_23
*807 PHY_EDGE_ROW_24_Left_52
*808 PHY_EDGE_ROW_24_Right_24
*809 PHY_EDGE_ROW_25_Left_53
*810 PHY_EDGE_ROW_25_Right_25
*811 PHY_EDGE_ROW_26_Left_54
*812 PHY_EDGE_ROW_26_Right_26
*813 PHY_EDGE_ROW_27_Left_55
*814 PHY_EDGE_ROW_27_Right_27
*815 PHY_EDGE_ROW_2_Left_30
*816 PHY_EDGE_ROW_2_Right_2
*817 PHY_EDGE_ROW_3_Left_31
*818 PHY_EDGE_ROW_3_Right_3
*819 PHY_EDGE_ROW_4_Left_32
*820 PHY_EDGE_ROW_4_Right_4
*821 PHY_EDGE_ROW_5_Left_33
*822 PHY_EDGE_ROW_5_Right_5
*823 PHY_EDGE_ROW_6_Left_34
*824 PHY_EDGE_ROW_6_Right_6
*825 PHY_EDGE_ROW_7_Left_35
*826 PHY_EDGE_ROW_7_Right_7
*827 PHY_EDGE_ROW_8_Left_36
*828 PHY_EDGE_ROW_8_Right_8
*829 PHY_EDGE_ROW_9_Left_37
*830 PHY_EDGE_ROW_9_Right_9
*831 TAP_TAPCELL_ROW_0_56
*832 TAP_TAPCELL_ROW_0_57
*833 TAP_TAPCELL_ROW_0_58
*834 TAP_TAPCELL_ROW_0_59
*835 TAP_TAPCELL_ROW_0_60
*836 TAP_TAPCELL_ROW_0_61
*837 TAP_TAPCELL_ROW_10_89
*838 TAP_TAPCELL_ROW_10_90
*839 TAP_TAPCELL_ROW_10_91
*840 TAP_TAPCELL_ROW_11_92
*841 TAP_TAPCELL_ROW_11_93
*842 TAP_TAPCELL_ROW_11_94
*843 TAP_TAPCELL_ROW_12_95
*844 TAP_TAPCELL_ROW_12_96
*845 TAP_TAPCELL_ROW_12_97
*846 TAP_TAPCELL_ROW_13_100
*847 TAP_TAPCELL_ROW_13_98
*848 TAP_TAPCELL_ROW_13_99
*849 TAP_TAPCELL_ROW_14_101
*850 TAP_TAPCELL_ROW_14_102
*851 TAP_TAPCELL_ROW_14_103
*852 TAP_TAPCELL_ROW_15_104
*853 TAP_TAPCELL_ROW_15_105
*854 TAP_TAPCELL_ROW_15_106
*855 TAP_TAPCELL_ROW_16_107
*856 TAP_TAPCELL_ROW_16_108
*857 TAP_TAPCELL_ROW_16_109
*858 TAP_TAPCELL_ROW_17_110
*859 TAP_TAPCELL_ROW_17_111
*860 TAP_TAPCELL_ROW_17_112
*861 TAP_TAPCELL_ROW_18_113
*862 TAP_TAPCELL_ROW_18_114
*863 TAP_TAPCELL_ROW_18_115
*864 TAP_TAPCELL_ROW_19_116
*865 TAP_TAPCELL_ROW_19_117
*866 TAP_TAPCELL_ROW_19_118
*867 TAP_TAPCELL_ROW_1_62
*868 TAP_TAPCELL_ROW_1_63
*869 TAP_TAPCELL_ROW_1_64
*870 TAP_TAPCELL_ROW_20_119
*871 TAP_TAPCELL_ROW_20_120
*872 TAP_TAPCELL_ROW_20_121
*873 TAP_TAPCELL_ROW_21_122
*874 TAP_TAPCELL_ROW_21_123
*875 TAP_TAPCELL_ROW_21_124
*876 TAP_TAPCELL_ROW_22_125
*877 TAP_TAPCELL_ROW_22_126
*878 TAP_TAPCELL_ROW_22_127
*879 TAP_TAPCELL_ROW_23_128
*880 TAP_TAPCELL_ROW_23_129
*881 TAP_TAPCELL_ROW_23_130
*882 TAP_TAPCELL_ROW_24_131
*883 TAP_TAPCELL_ROW_24_132
*884 TAP_TAPCELL_ROW_24_133
*885 TAP_TAPCELL_ROW_25_134
*886 TAP_TAPCELL_ROW_25_135
*887 TAP_TAPCELL_ROW_25_136
*888 TAP_TAPCELL_ROW_26_137
*889 TAP_TAPCELL_ROW_26_138
*890 TAP_TAPCELL_ROW_26_139
*891 TAP_TAPCELL_ROW_27_140
*892 TAP_TAPCELL_ROW_27_141
*893 TAP_TAPCELL_ROW_27_142
*894 TAP_TAPCELL_ROW_27_143
*895 TAP_TAPCELL_ROW_27_144
*896 TAP_TAPCELL_ROW_27_145
*897 TAP_TAPCELL_ROW_2_65
*898 TAP_TAPCELL_ROW_2_66
*899 TAP_TAPCELL_ROW_2_67
*900 TAP_TAPCELL_ROW_3_68
*901 TAP_TAPCELL_ROW_3_69
*902 TAP_TAPCELL_ROW_3_70
*903 TAP_TAPCELL_ROW_4_71
*904 TAP_TAPCELL_ROW_4_72
*905 TAP_TAPCELL_ROW_4_73
*906 TAP_TAPCELL_ROW_5_74
*907 TAP_TAPCELL_ROW_5_75
*908 TAP_TAPCELL_ROW_5_76
*909 TAP_TAPCELL_ROW_6_77
*910 TAP_TAPCELL_ROW_6_78
*911 TAP_TAPCELL_ROW_6_79
*912 TAP_TAPCELL_ROW_7_80
*913 TAP_TAPCELL_ROW_7_81
*914 TAP_TAPCELL_ROW_7_82
*915 TAP_TAPCELL_ROW_8_83
*916 TAP_TAPCELL_ROW_8_84
*917 TAP_TAPCELL_ROW_8_85
*918 TAP_TAPCELL_ROW_9_86
*919 TAP_TAPCELL_ROW_9_87
*920 TAP_TAPCELL_ROW_9_88
*921 _170_
*922 _171_
*923 _172_
*924 _173_
*925 _174_
*926 _175_
*927 _176_
*928 _177_
*929 _178_
*930 _179_
*931 _180_
*932 _181_
*933 _182_
*934 _183_
*935 _184_
*936 _185_
*937 _186_
*938 _187_
*939 _188_
*940 _189_
*941 _190_
*942 _191_
*943 _192_
*944 _193_
*945 _194_
*946 _195_
*947 _196_
*948 _197_
*949 _198_
*950 _199_
*951 _200_
*952 _201_
*953 _202_
*954 _203_
*955 _204_
*956 _205_
*957 _206_
*958 _207_
*959 _208_
*960 _209_
*961 _210_
*962 _211_
*963 _212_
*964 _213_
*965 _214_
*966 _215_
*967 _216_
*968 _217_
*969 _218_
*970 _219_
*971 _220_
*972 _221_
*973 _222_
*974 _223_
*975 _224_
*976 _225_
*977 _226_
*978 _227_
*979 _228_
*980 _229_
*981 _230_
*982 _231_
*983 _232_
*984 _233_
*985 _234_
*986 _235_
*987 _236_
*988 _237_
*989 _238_
*990 _239_
*991 _240_
*992 _241_
*993 _242_
*994 _243_
*995 _244_
*996 _245_
*997 _246_
*998 _247_
*999 _248_
*1000 _249_
*1001 _250_
*1002 _251_
*1003 _252_
*1004 _253_
*1005 _254_
*1006 _255_
*1007 _256_
*1008 _257_
*1009 _258_
*1010 _259_
*1011 _260_
*1012 _261_
*1013 _262_
*1014 _263_
*1015 _264_
*1016 _265_
*1017 _266_
*1018 _267_
*1019 _268_
*1020 _269_
*1021 _270_
*1022 _271_
*1023 _272_
*1024 _273_
*1025 _274_
*1026 _275_
*1027 _276_
*1028 _277_
*1029 _278_
*1030 _279_
*1031 _280_
*1032 _281_
*1033 _282_
*1034 _283_
*1035 _284_
*1036 _285_
*1037 _286_
*1038 _287_
*1039 _288_
*1040 _289_
*1041 _290_
*1042 _291_
*1043 _292_
*1044 _293_
*1045 _294_
*1046 _295_
*1047 _296_
*1048 _297_
*1049 _298_
*1050 _299_
*1051 _300_
*1052 _301_
*1053 _302_
*1054 _303_
*1055 _304_
*1056 _305_
*1057 _306_
*1058 _307_
*1059 _308_
*1060 _309_
*1061 _310_
*1062 _311_
*1063 _312_
*1064 _313_
*1065 _314_
*1066 _315_
*1067 _316_
*1068 _317_
*1069 _318_
*1070 _319_
*1071 _320_
*1072 _321_
*1073 _322_
*1074 _323_
*1075 _324_
*1076 _325_
*1077 _326_
*1078 _327_
*1079 _328_
*1080 _329_
*1081 _330_
*1082 _331_
*1083 _332_
*1084 _333_
*1085 _334_
*1086 _335_
*1087 _336_
*1088 _337_
*1089 _338_
*1090 _339_
*1091 _340_
*1092 _341_
*1093 _342_
*1094 _343_
*1095 _344_
*1096 _345_
*1097 _346_
*1098 _347_
*1099 input1
*1100 input10
*1101 input11
*1102 input12
*1103 input13
*1104 input14
*1105 input15
*1106 input16
*1107 input17
*1108 input18
*1109 input19
*1110 input2
*1111 input3
*1112 input4
*1113 input5
*1114 input6
*1115 input7
*1116 input8
*1117 input9
*1118 output20
*1119 output21
*1120 output22
*1121 output23
*1122 output24
*1123 output25
*1124 output26
*1125 output27
*1126 rebuffer1
*1127 rebuffer2
*1128 rebuffer3
*1129 rebuffer4
*1130 rebuffer5

*PORTS
A[0] I
A[1] I
A[2] I
A[3] I
A[4] I
A[5] I
A[6] I
A[7] I
B[0] I
B[1] I
B[2] I
B[3] I
B[4] I
B[5] I
B[6] I
B[7] I
opcode[0] I
opcode[1] I
opcode[2] I
out[0] O
out[1] O
out[2] O
out[3] O
out[4] O
out[5] O
out[6] O
out[7] O

*D_NET *1 0.00267594
*CONN
*P A[0] I
*I *1099:A I *D sky130_fd_sc_hd__buf_1
*CAP
1 A[0] 0.000859746
2 *1099:A 0
3 *1:13 0.000859746
4 *1:13 out[7] 0.000215242
5 *1:13 *20:13 0.000230211
6 *1:13 *29:10 0.000451357
7 *1:13 *117:28 5.50049e-05
8 *1:13 *219:24 4.6318e-06
*RES
1 A[0] *1:13 35.9342 
2 *1:13 *1099:A 23 
*END

*D_NET *2 0.000873615
*CONN
*P A[1] I
*I *1110:A I *D sky130_fd_sc_hd__clkbuf_2
*CAP
1 A[1] 0.000276976
2 *1110:A 0.000276976
3 *1110:A *7:17 2.46555e-05
4 *1110:A *19:17 1.58847e-06
5 *1110:A *137:120 4.9808e-05
6 *1110:A *149:134 2.36993e-05
7 *1110:A *194:35 0.000219911
*RES
1 A[1] *1110:A 47.5169 
*END

*D_NET *3 0.000866634
*CONN
*P A[2] I
*I *1111:A I *D sky130_fd_sc_hd__buf_2
*CAP
1 A[2] 0.000329202
2 *1111:A 0.000329202
3 *1111:A out[5] 2.8433e-05
4 *1111:A *1112:A 0
5 *1111:A *21:17 2.51207e-05
6 *1111:A *211:38 7.73383e-05
7 *1111:A *229:20 7.73383e-05
*RES
1 A[2] *1111:A 47.7832 
*END

*D_NET *4 0.0010459
*CONN
*P A[3] I
*I *1112:A I *D sky130_fd_sc_hd__buf_2
*CAP
1 A[3] 0.000367142
2 *1112:A 0.000367142
3 *1112:A out[2] 0
4 *1112:A *8:17 2.17767e-05
5 *1112:A *21:17 1.54943e-05
6 *1112:A *137:114 0.000183171
7 *1112:A *195:12 9.1176e-05
8 *1111:A *1112:A 0
*RES
1 A[3] *1112:A 49.1918 
*END

*D_NET *5 0.000731495
*CONN
*P A[4] I
*I *1113:A I *D sky130_fd_sc_hd__buf_2
*CAP
1 A[4] 0.000331566
2 *1113:A 0
3 *5:17 0.000331566
4 *5:17 out[1] 2.30055e-05
5 *5:17 out[4] 2.0307e-05
6 *5:17 *23:14 3.12741e-06
7 *5:17 *26:10 0
8 *5:17 *100:12 0
9 *5:17 *216:18 2.19236e-05
*RES
1 A[4] *5:17 27.1584 
2 *5:17 *1113:A 23 
*END

*D_NET *6 0.000889073
*CONN
*P A[5] I
*I *1114:A I *D sky130_fd_sc_hd__buf_2
*CAP
1 A[5] 0.000400901
2 *1114:A 0.000400901
3 *1114:A out[5] 2.51207e-05
4 *1114:A out[6] 1.83731e-05
5 *1114:A *28:14 0
6 *1114:A *104:16 2.11066e-05
7 *1114:A *117:34 9.21526e-06
8 *1114:A *194:37 1.34542e-05
*RES
1 A[5] *1114:A 49.8062 
*END

*D_NET *7 0.00102167
*CONN
*P A[6] I
*I *1115:A I *D sky130_fd_sc_hd__buf_2
*CAP
1 A[6] 0.000275833
2 *1115:A 0
3 *7:17 0.000275833
4 *7:17 *12:17 2.56411e-05
5 *7:17 *104:16 6.48049e-05
6 *7:17 *104:24 0.000124875
7 *7:17 *117:38 0.00010873
8 *7:17 *195:6 0.000102971
9 *7:17 *216:18 1.83235e-05
10 *1110:A *7:17 2.46555e-05
*RES
1 A[6] *7:17 27.8627 
2 *7:17 *1115:A 23 
*END

*D_NET *8 0.00116978
*CONN
*P A[7] I
*I *1116:A I *D sky130_fd_sc_hd__clkbuf_2
*CAP
1 A[7] 0.000491486
2 *1116:A 0
3 *8:17 0.000491486
4 *8:17 out[2] 1.54943e-05
5 *8:17 *104:16 7.23298e-05
6 *8:17 *117:38 7.72072e-05
7 *1112:A *8:17 2.17767e-05
*RES
1 A[7] *8:17 27.987 
2 *8:17 *1116:A 23 
*END

*D_NET *9 0.000913362
*CONN
*P B[0] I
*I *1117:A I *D sky130_fd_sc_hd__clkbuf_2
*CAP
1 B[0] 0.000347563
2 *1117:A 0.000347563
3 *1117:A out[3] 0
4 *1117:A out[6] 1.24164e-05
5 *1117:A *10:17 2.83749e-05
6 *1117:A *28:14 1.59585e-05
7 *1117:A *146:30 5.6687e-05
8 *1117:A *193:43 1.14452e-05
9 *1117:A *195:16 4.97146e-05
10 *1117:A *211:38 4.36385e-05
*RES
1 B[0] *1117:A 48.2212 
*END

*D_NET *10 0.000923805
*CONN
*P B[1] I
*I *1100:A I *D sky130_fd_sc_hd__clkbuf_2
*CAP
1 B[1] 0.000395636
2 *1100:A 0
3 *10:17 0.000395636
4 *10:17 out[3] 2.0307e-05
5 *10:17 *1009:B1 0
6 *10:17 *104:16 4.67137e-05
7 *10:17 *195:20 3.71369e-05
8 *1117:A *10:17 2.83749e-05
*RES
1 B[1] *10:17 27.6348 
2 *10:17 *1100:A 23 
*END

*D_NET *11 0.0012065
*CONN
*P B[2] I
*I *1101:A I *D sky130_fd_sc_hd__clkbuf_2
*CAP
1 B[2] 0.000452066
2 *1101:A 0
3 *11:17 0.000452066
4 *11:17 out[4] 3.12475e-05
5 *11:17 *1122:A 0.00010018
6 *11:17 *26:10 0.000170941
7 *11:17 *202:8 0
*RES
1 B[2] *11:17 31.1562 
2 *11:17 *1101:A 23 
*END

*D_NET *12 0.000921045
*CONN
*P B[3] I
*I *1102:A I *D sky130_fd_sc_hd__clkbuf_2
*CAP
1 B[3] 0.000353174
2 *1102:A 0
3 *12:17 0.000353174
4 *12:17 out[1] 1.5289e-05
5 *12:17 *23:14 1.35999e-05
6 *12:17 *104:24 0
7 *12:17 *117:38 0.00010873
8 *12:17 *117:44 0
9 *12:17 *216:18 5.14362e-05
10 *7:17 *12:17 2.56411e-05
*RES
1 B[3] *12:17 28.3391 
2 *12:17 *1102:A 23 
*END

*D_NET *13 0.000941162
*CONN
*P B[4] I
*I *1103:A I *D sky130_fd_sc_hd__clkbuf_4
*CAP
1 B[4] 0.000338679
2 *1103:A 0
3 *13:17 0.000338679
4 *13:17 out[3] 2.12457e-05
5 *13:17 *1104:A 2.88889e-05
6 *13:17 *104:12 0.000145172
7 *13:17 *104:16 5.05059e-05
8 *13:17 *117:34 1.7992e-05
*RES
1 B[4] *13:17 28.3391 
2 *13:17 *1103:A 23 
*END

*D_NET *14 0.000694091
*CONN
*P B[5] I
*I *1104:A I *D sky130_fd_sc_hd__buf_2
*CAP
1 B[5] 0.000317356
2 *1104:A 0.000317356
3 *1104:A *1105:A 2.61329e-05
4 *1104:A *117:34 4.35681e-06
5 *13:17 *1104:A 2.88889e-05
*RES
1 B[5] *1104:A 49.8062 
*END

*D_NET *15 0.000786481
*CONN
*P B[6] I
*I *1105:A I *D sky130_fd_sc_hd__buf_2
*CAP
1 B[6] 0.00029436
2 *1105:A 0.00029436
3 *1105:A *20:13 2.79122e-05
4 *1105:A *117:28 0.000139352
5 *1105:A *117:34 4.36401e-06
6 *1104:A *1105:A 2.61329e-05
*RES
1 B[6] *1105:A 49.8062 
*END

*D_NET *16 0.00106418
*CONN
*P B[7] I
*I *1106:A I *D sky130_fd_sc_hd__dlymetal6s2s_1
*CAP
1 B[7] 0.000434952
2 *1106:A 0
3 *16:17 0.000434952
4 *16:17 out[0] 1.54943e-05
5 *16:17 out[2] 2.17767e-05
6 *16:17 *104:16 7.60701e-05
7 *16:17 *117:38 8.0934e-05
*RES
1 B[7] *16:17 27.5105 
2 *16:17 *1106:A 23 
*END

*D_NET *19 0.0011645
*CONN
*P opcode[0] I
*I *1107:A I *D sky130_fd_sc_hd__clkbuf_2
*CAP
1 opcode[0] 0.000447782
2 *1107:A 0
3 *19:17 0.000447782
4 *19:17 out[0] 1.45492e-05
5 *19:17 *104:16 9.94886e-05
6 *19:17 *117:38 0.000104359
7 *19:17 *194:35 4.89542e-05
8 *1110:A *19:17 1.58847e-06
*RES
1 opcode[0] *19:17 28.3391 
2 *19:17 *1107:A 23 
*END

*D_NET *20 0.00289057
*CONN
*P opcode[1] I
*I *1108:A I *D sky130_fd_sc_hd__buf_2
*CAP
1 opcode[1] 0.000853417
2 *1108:A 0
3 *20:13 0.000853417
4 *20:13 out[7] 0.000215242
5 *20:13 *100:32 0.0001084
6 *20:13 *131:6 0.000279219
7 *20:13 *205:14 0.000281712
8 *20:13 *219:24 4.10408e-05
9 *1105:A *20:13 2.79122e-05
10 *1:13 *20:13 0.000230211
*RES
1 opcode[1] *20:13 34.5287 
2 *20:13 *1108:A 23 
*END

*D_NET *21 0.00118085
*CONN
*P opcode[2] I
*I *1109:A I *D sky130_fd_sc_hd__clkbuf_4
*CAP
1 opcode[2] 0.000460055
2 *1109:A 0
3 *21:17 0.000460055
4 *21:17 *104:16 0.000103866
5 *21:17 *117:38 0.00010873
6 *21:17 *229:20 7.53384e-06
7 *1111:A *21:17 2.51207e-05
8 *1112:A *21:17 1.54943e-05
*RES
1 opcode[2] *21:17 28.3391 
2 *21:17 *1109:A 23 
*END

*D_NET *22 0.00107954
*CONN
*P out[0] O
*I *1118:X O *D sky130_fd_sc_hd__buf_2
*CAP
1 out[0] 0.000325975
2 *1118:X 0.000325975
3 out[0] out[2] 0
4 out[0] *137:120 0.00012758
5 out[0] *146:40 0.000208306
6 out[0] *149:134 6.16635e-05
7 out[0] *194:35 0
8 *16:17 out[0] 1.54943e-05
9 *19:17 out[0] 1.45492e-05
*RES
1 *1118:X out[0] 48.5734 
*END

*D_NET *23 0.000785649
*CONN
*P out[1] O
*I *1119:X O *D sky130_fd_sc_hd__buf_2
*CAP
1 out[1] 9.75463e-05
2 *1119:X 0.000203105
3 *23:14 0.000300651
4 *23:14 *100:12 0.000111776
5 *23:14 *100:16 9.33529e-06
6 *23:14 *117:44 0
7 *23:14 *216:18 8.21456e-06
8 *5:17 out[1] 2.30055e-05
9 *5:17 *23:14 3.12741e-06
10 *12:17 out[1] 1.5289e-05
11 *12:17 *23:14 1.35999e-05
*RES
1 *1119:X *23:14 49.9 
2 *23:14 out[1] 0.382667 
*END

*D_NET *24 0.000827421
*CONN
*P out[2] O
*I *1120:X O *D sky130_fd_sc_hd__buf_2
*CAP
1 out[2] 0.000350738
2 *1120:X 0.000350738
3 out[2] *137:120 4.96982e-05
4 out[2] *149:134 3.89756e-05
5 out[0] out[2] 0
6 *1112:A out[2] 0
7 *8:17 out[2] 1.54943e-05
8 *16:17 out[2] 2.17767e-05
*RES
1 *1120:X out[2] 47.5169 
*END

*D_NET *25 0.000808687
*CONN
*P out[3] O
*I *1121:X O *D sky130_fd_sc_hd__buf_2
*CAP
1 out[3] 0.000336956
2 *1121:X 0.000336956
3 out[3] *100:26 3.39994e-05
4 out[3] *146:30 0
5 out[3] *211:38 5.92233e-05
6 *1117:A out[3] 0
7 *10:17 out[3] 2.0307e-05
8 *13:17 out[3] 2.12457e-05
*RES
1 *1121:X out[3] 48.5734 
*END

*D_NET *26 0.0013293
*CONN
*P out[4] O
*I *1122:X O *D sky130_fd_sc_hd__buf_2
*CAP
1 out[4] 8.25652e-05
2 *1122:X 0.000281276
3 *26:10 0.000363841
4 *26:10 *1122:A 9.61128e-05
5 *26:10 *137:126 0.000184527
6 *26:10 *149:142 9.84851e-05
7 *26:10 *202:8 0
8 *26:10 *216:18 0
9 *5:17 out[4] 2.0307e-05
10 *5:17 *26:10 0
11 *11:17 out[4] 3.12475e-05
12 *11:17 *26:10 0.000170941
*RES
1 *1122:X *26:10 45.3432 
2 *26:10 out[4] 8.32853 
*END

*D_NET *27 0.00127876
*CONN
*P out[5] O
*I *1123:X O *D sky130_fd_sc_hd__buf_2
*CAP
1 out[5] 0.000157828
2 *1123:X 0.00035882
3 *27:10 0.000516647
4 *27:10 *1021:B 4.02657e-05
5 *27:10 *100:22 9.66585e-05
6 *27:10 *104:16 2.33476e-05
7 *27:10 *117:34 1.05235e-05
8 *27:10 *146:40 2.11157e-05
9 *1111:A out[5] 2.8433e-05
10 *1114:A out[5] 2.51207e-05
*RES
1 *1123:X *27:10 43.2304 
2 *27:10 out[5] 8.4144 
*END

*D_NET *28 0.00104129
*CONN
*P out[6] O
*I *1124:X O *D sky130_fd_sc_hd__buf_2
*CAP
1 out[6] 0.000134821
2 *1124:X 0.000343941
3 *28:14 0.000478761
4 *28:14 *104:16 2.11066e-05
5 *28:14 *194:37 1.34542e-05
6 *28:14 *231:72 2.45549e-06
7 *1114:A out[6] 1.83731e-05
8 *1114:A *28:14 0
9 *1117:A out[6] 1.24164e-05
10 *1117:A *28:14 1.59585e-05
*RES
1 *1124:X *28:14 49.9 
2 *28:14 out[6] 0.382667 
*END

*D_NET *29 0.00232643
*CONN
*P out[7] O
*I *1125:X O *D sky130_fd_sc_hd__buf_2
*CAP
1 out[7] 0.000341186
2 *1125:X 0.000309284
3 *29:10 0.000650469
4 *29:10 *117:28 0.000143655
5 *1:13 out[7] 0.000215242
6 *1:13 *29:10 0.000451357
7 *20:13 out[7] 0.000215242
*RES
1 *1125:X *29:10 45.5296 
2 *29:10 out[7] 10.0459 
*END

*D_NET *30 0.0255714
*CONN
*I *995:A1 I *D sky130_fd_sc_hd__o21a_2
*I *996:B I *D sky130_fd_sc_hd__or3_4
*I *993:X O *D sky130_fd_sc_hd__and3_4
*CAP
1 *995:A1 0
2 *996:B 0
3 *993:X 4.60383e-05
4 *30:79 0.000205946
5 *30:71 0.00115758
6 *30:63 0.00304181
7 *30:44 0.000335626
8 *30:36 0.00250745
9 *30:32 0.00120855
10 *30:20 0.00246376
11 *30:8 0.0013829